<?xml version="1.0" encoding="UTF-8"?>

<!-- generated on 2023-10-23 12:48:36 by Eclipse SUMO polyconvert Version 1.17.0
<configuration xmlns:xsi="http://www.w3.org/2001/XMLSchema-instance" xsi:noNamespaceSchemaLocation="http://sumo.dlr.de/xsd/polyconvertConfiguration.xsd">

    <input>
        <net-file value="osm.net.xml.gz"/>
        <osm-files value="osm_bbox.osm.xml.gz"/>
        <osm.keep-full-type value="true"/>
        <type-file value="${SUMO_HOME}/data/typemap/osmPolyconvert.typ.xml"/>
    </input>

    <output>
        <output-file value="osm.poly.xml.gz"/>
    </output>

    <report>
        <verbose value="true"/>
    </report>

</configuration>
-->

<additional xmlns:xsi="http://www.w3.org/2001/XMLSchema-instance" xsi:noNamespaceSchemaLocation="http://sumo.dlr.de/xsd/additional_file.xsd">
    <location netOffset="-375325.33,-4016896.18" convBoundary="0.00,0.00,4605.66,3755.80" origBoundary="-82.388380,36.289260,-82.337409,36.323271" projParameter="+proj=utm +zone=17 +ellps=WGS84 +datum=WGS84 +units=m +no_defs"/>

    <poly id="1007780659" type="landuse.commercial" color="209,209,204" fill="1" layer="-3.00" shape="2909.865935,2329.655552 3011.766276,2384.579736 3032.939405,2396.676431 3045.280323,2403.282723 3059.210421,2411.797333 3139.911775,2467.008748 3219.446034,2521.671347 3301.523443,2577.830223 3324.313792,2594.553857 3363.804087,2539.791277 3387.212747,2503.061175 3428.411673,2528.814627 3439.069363,2512.012042 3483.502443,2546.252753 3500.889736,2523.930818 3563.927411,2567.775918 3512.646508,2641.885525 3500.592043,2657.686762 3463.437788,2631.510399 3396.077121,2719.847276 3515.517342,2804.522286 3573.874800,2843.217987 3576.805631,2846.050751 3575.529717,2849.208467 3584.289557,2855.366149 3586.626826,2852.981388 3666.036880,2892.105315 3702.789631,2910.210828 3677.239346,3063.890397 3753.521834,3064.935777 3769.027125,3066.117840 3787.850685,3069.594801 3806.217890,3074.476141 3833.580119,3084.380462 3860.019120,3095.695698 3889.390635,3115.147320 3917.881431,3139.071524 3939.379738,3163.803135 4029.926427,3305.549419 4034.760974,3309.065962 4038.176334,3310.605106 4051.331111,3310.022907 4065.180055,3301.886406 4170.624129,3237.657209 4237.697246,3193.733007 4338.361682,3125.877591 4389.376753,3091.940887 4468.156327,3203.354086 4504.940498,3260.284169 4513.546106,3279.381759 4525.553398,3319.801426 4530.635496,3342.520413 4532.872946,3349.135410 4538.437471,3355.460276 4492.670469,3400.673787 4487.364854,3405.917549 4468.290531,3425.753377 4459.205353,3435.565194 4403.397942,3492.213064 4353.292361,3543.012845 4338.906025,3556.415422 4336.662407,3560.374189 4286.660548,3614.712292 4278.115931,3620.744484 4159.789696,3548.992154 4130.452977,3530.604335 4095.874062,3575.021206 4070.951470,3580.959345 4027.540065,3558.961785 3972.088529,3515.030344 3947.823773,3494.031823 3931.366254,3484.363850 3919.741098,3476.770050 3908.778610,3418.706423 3908.014369,3403.139500 3897.310156,3403.022124 3856.474184,3387.469098 3830.522170,3376.890497 3806.746749,3364.650685 3796.008194,3362.070791 3785.029344,3362.223658 3762.562563,3345.316881 3732.939957,3327.145138 3681.477824,3297.805454 3648.282006,3279.683785 3637.837762,3309.819532 3624.758989,3372.522969 3606.269258,3428.356338 3596.115681,3438.749847 3584.914944,3445.518769 3572.298062,3446.027610 3534.230407,3432.001883 3492.264365,3400.500403 3457.078998,3331.203136 3438.889453,3337.736970 3399.810852,3322.738455 3335.732341,3277.988327 3332.401968,3276.758930 3313.055214,3250.611789 3312.652092,3247.466401 3297.358041,3259.452155 3281.159438,3274.168897 3309.214461,3323.993334 3322.834505,3349.632464 3345.866372,3388.920255 3388.495967,3448.593462 3446.435889,3531.585863 3495.587060,3603.805859 3520.709262,3648.224137 3472.323445,3692.525681 3400.859459,3755.800852 3378.882996,3730.278378 3366.598052,3717.246806 3237.487053,3575.269791 3218.213196,3556.877362 3194.272113,3535.399256 3111.285086,3606.072127 3081.417142,3569.787605 2996.966284,3635.866533 2935.367983,3564.378494 2912.904450,3536.911211 2850.653147,3463.136185 2813.902327,3419.559724 2813.839265,3415.067061 2862.023985,3366.781450 2882.835702,3343.023178 2896.444632,3324.891385 2936.810296,3262.558472 2868.259612,3217.974247 2816.696551,3198.349242 2783.296310,3189.498135 2657.343239,3186.574034 2652.840389,3184.984134 2617.991938,3090.377138 2599.461745,3088.008087 2588.177367,3087.534323 2562.554140,3086.474464 2478.137688,3082.991023 2429.627106,3078.769801 2426.446482,3078.625964 2413.306811,3077.756930 2410.036493,3121.617903 2399.889858,3124.146256 2348.308109,3118.615133 2226.342449,3111.391594 2217.652966,3110.915002 2214.747337,3159.552980 2210.881161,3161.094268 2120.705106,3157.296134 2086.306835,3159.867637 2049.374403,3131.774611 2022.630964,3103.537797 2005.930732,3087.075424 1990.335897,3084.666196 1986.028394,3077.215600 1986.135011,3072.687245 1987.131125,3068.834225 1976.015284,3064.408976 1967.129658,3058.953652 1951.921785,3045.809947 1948.079205,3042.668836 1943.296322,3030.176655 1899.843841,3016.045416 1884.966356,3011.673468 1874.908551,3008.420570 1841.956389,3000.909200 1793.127770,2988.241440 1749.304589,2976.501655 1747.621957,2970.545150 1750.936936,2964.318179 1798.651500,2912.205373 1802.235184,2910.368330 1808.447115,2910.879572 1921.017497,2941.785331 2005.438338,2964.513555 2009.665011,2966.240173 2011.506147,2968.810443 2012.175176,2973.583029 2035.221515,2975.254628 2040.419965,2974.582065 2119.591119,2994.400909 2132.650474,2997.201203 2151.320328,3000.532583 2170.365296,3002.449619 2222.461306,3004.910189 2430.234697,3014.142847 2429.869646,2951.859583 2532.978277,2955.068554 2533.869437,3018.420625 2612.852155,3019.850742 2613.382970,3007.150391 2610.977686,2908.226280 2611.822551,2847.601435 2690.483242,2850.290600 2687.976557,2912.824942 2663.016486,2911.067549 2661.394948,2961.173970 2849.421870,2970.316936 2923.669940,2974.745447 2926.069049,2919.790739 2926.933546,2906.519896 2916.480607,2905.801041 2920.404822,2857.792715 2979.297408,2862.093110 2984.253384,2717.242917 2982.561734,2715.069782 2925.200719,2701.594346 2905.672933,2698.572891 2885.457831,2697.125537 2898.040498,2669.765929 2864.625694,2652.970506 2867.443689,2643.255996 2870.474045,2633.316605 2848.534854,2620.998063 2845.542775,2618.943053 2856.227511,2597.113214 2856.543186,2589.530790 2852.235072,2583.278076 2844.344587,2578.340470 2809.551516,2561.265009 2781.098598,2548.716278 2769.369914,2539.028405 2753.053127,2524.900322 2729.316257,2506.094440 2686.773837,2476.280066 2677.883813,2467.961522 2683.334023,2449.389314 2697.187658,2417.273925 2686.376377,2411.545340 2581.102349,2353.121872 2566.744389,2344.236786 2551.428431,2333.001922 2542.582765,2326.580159 2532.653372,2321.638208 2520.893613,2316.167254 2510.852714,2310.960612 2481.473202,2290.725797 2465.456738,2280.776879 2451.832086,2272.968983 2440.442966,2267.681536 2424.639232,2260.092969 2408.994420,2251.037628 2382.318329,2235.968715 2336.484179,2209.164731 2297.838730,2187.174852 2279.999273,2177.251947 2269.503901,2171.042315 2253.835776,2160.356578 2240.365974,2150.183543 2230.786325,2143.961047 2216.445479,2136.341125 2209.264223,2132.081970 2197.473333,2124.437219 2187.696067,2116.941608 2181.213863,2110.675483 2173.611791,2102.050787 2168.063350,2097.047448 2156.092652,2089.394191 2141.590096,2081.144242 2141.292455,2075.323466 2142.612757,2068.337060 2151.702001,2042.967283 2160.791651,2018.895650 2163.571648,2012.254801 2166.280183,2010.097417 2172.768866,1990.711369 2176.147047,1991.462578 2176.723720,1986.505992 2192.171228,1947.765662 2332.883715,2022.405885 2426.973913,2071.874808 2516.058924,2119.273738 2591.644388,2160.172901 2735.618221,2236.715204 2842.995309,2293.968245 2909.865935,2329.655552"/>
    <poly id="1023484982" type="leisure.disc_golf_course" color="207,245,201" fill="1" layer="-2.00" shape="2294.798784,1258.728971 2276.818336,1263.154050 2259.257184,1266.741121 2249.244503,1270.643472 2241.238850,1267.838258 2238.819902,1245.315865 2234.073657,1206.139135 2228.996565,1172.803131 2222.384234,1150.339843 2214.190055,1134.167627 2203.490320,1119.284489 2186.903570,1102.820081 2173.311821,1090.485259 2157.167263,1076.089467 2123.694935,1051.930247 2094.023051,1029.792329 2084.125892,1011.979974 2079.992120,986.985396 2086.219840,952.236205 2089.451354,943.835947 2131.273082,964.548738 2219.801545,1026.354447 2261.356112,1058.754813 2294.678398,1071.655067 2303.001842,1097.012330 2305.839474,1119.939355 2315.261168,1228.383951 2317.804863,1253.401012 2294.798784,1258.728971"/>
    <poly id="1023484982#1" type="sport.disc_golf" color="79,230,125" fill="1" layer="-2.00" shape="2294.798784,1258.728971 2276.818336,1263.154050 2259.257184,1266.741121 2249.244503,1270.643472 2241.238850,1267.838258 2238.819902,1245.315865 2234.073657,1206.139135 2228.996565,1172.803131 2222.384234,1150.339843 2214.190055,1134.167627 2203.490320,1119.284489 2186.903570,1102.820081 2173.311821,1090.485259 2157.167263,1076.089467 2123.694935,1051.930247 2094.023051,1029.792329 2084.125892,1011.979974 2079.992120,986.985396 2086.219840,952.236205 2089.451354,943.835947 2131.273082,964.548738 2219.801545,1026.354447 2261.356112,1058.754813 2294.678398,1071.655067 2303.001842,1097.012330 2305.839474,1119.939355 2315.261168,1228.383951 2317.804863,1253.401012 2294.798784,1258.728971"/>
    <poly id="1076398820" type="landuse.cemetery" color="194,194,130" fill="1" layer="-3.00" shape="642.494885,1914.657228 697.667942,1874.215098 690.379037,1812.152388 737.521901,1808.672524 823.518535,1837.602847 939.133246,1696.399140 1001.090624,1669.920099 1110.996196,1671.862159 1116.567305,1617.782405 912.049130,1575.469559 566.915487,1575.833328 450.724080,1700.917862 568.466829,1832.133972 642.494885,1914.657228"/>
    <poly id="1076398824" type="building.yes" color="255,230,230" fill="1" layer="-1.00" shape="709.590993,1758.221516 711.176712,1744.107909 731.505067,1746.369741 731.951529,1742.413459 747.944374,1744.193523 746.748544,1754.795458 745.489433,1765.997441 730.575973,1764.335124 729.361528,1760.413636 709.590993,1758.221516"/>
    <poly id="1076398829" type="amenity.shelter" color="237,199,199" fill="1" layer="-1.00" shape="553.545154,1673.396393 558.895436,1664.443735 568.731546,1670.261360 563.381259,1679.214012 553.545154,1673.396393"/>
    <poly id="1076398829#1" type="building.yes" color="255,230,230" fill="1" layer="-1.00" shape="553.545154,1673.396393 558.895436,1664.443735 568.731546,1670.261360 563.381259,1679.214012 553.545154,1673.396393"/>
    <poly id="1076398834" type="building.yes" color="255,230,230" fill="1" layer="-1.00" shape="630.612040,1886.234419 649.287740,1872.775469 636.683051,1855.436032 648.914254,1846.618171 662.572376,1865.407159 665.159022,1863.539512 672.661369,1873.861954 668.865671,1876.590100 674.169433,1883.881638 665.653775,1890.016841 661.082709,1883.724516 639.882444,1898.994733 630.612040,1886.234419"/>
    <poly id="1123224199" type="building.yes" color="255,230,230" fill="1" layer="-1.00" shape="937.575732,660.669908 939.142476,652.115369 962.501303,656.354018 960.934538,664.908552 937.575732,660.669908"/>
    <poly id="1123224200" type="building.yes" color="255,230,230" fill="1" layer="-1.00" shape="962.255997,664.989596 963.636082,656.570862 989.221412,660.744598 987.841146,669.152235 962.255997,664.989596"/>
    <poly id="1123224204" type="building.yes" color="255,230,230" fill="1" layer="-1.00" shape="1031.339309,649.582556 1040.455845,652.748125 1036.200814,664.902458 1027.084289,661.736894 1031.339309,649.582556"/>
    <poly id="1127384516" type="amenity.parking_space" color="237,199,199" fill="1" layer="-1.00" shape="1183.291124,1373.104713 1180.194173,1376.998780 1181.942761,1378.704779 1185.176605,1374.964101 1183.291124,1373.104713"/>
    <poly id="1127384517" type="amenity.parking_space" color="237,199,199" fill="1" layer="-1.00" shape="1180.194173,1376.998780 1176.942689,1380.761902 1178.818088,1382.543764 1181.942761,1378.704779 1180.194173,1376.998780"/>
    <poly id="1144581746" type="building.apartments" color="255,230,230" fill="1" layer="-1.00" shape="620.129034,802.355447 628.115509,794.308329 662.394464,828.036768 654.407992,836.083856 620.129034,802.355447"/>
    <poly id="1149579156" type="building.yes" color="255,230,230" fill="1" layer="-1.00" shape="2226.366998,1577.547739 2231.223200,1571.010802 2237.621007,1575.724838 2232.773781,1582.261646 2226.366998,1577.547739"/>
    <poly id="1149579156#1" type="shop.laundry" color="237,199,255" fill="1" layer="-1.00" shape="2226.366998,1577.547739 2231.223200,1571.010802 2237.621007,1575.724838 2232.773781,1582.261646 2226.366998,1577.547739"/>
    <poly id="1149579621" type="building.university" color="255,230,230" fill="1" layer="-1.00" shape="1474.346470,1556.248444 1481.846137,1560.735506 1483.460659,1558.060854 1490.027312,1561.984202 1495.116635,1553.557339 1501.728810,1557.524432 1506.449682,1549.713037 1501.703520,1546.873385 1503.221642,1544.366532 1503.946247,1544.800067 1507.886249,1538.286790 1497.850455,1532.282336 1493.612253,1539.299130 1486.945872,1535.310622 1488.463835,1532.792673 1483.255642,1529.671107 1479.895050,1535.244180 1485.139314,1538.376329 1474.346470,1556.248444"/>
    <poly id="1149579622" type="building.university" color="255,230,230" fill="1" layer="-1.00" shape="1338.638745,1541.065284 1330.805974,1536.527596 1343.457844,1514.878714 1341.465622,1513.719809 1346.428185,1505.228084 1343.929044,1503.787899 1346.015644,1500.207805 1348.288579,1501.529155 1351.935961,1495.286243 1361.987342,1501.112789 1359.085060,1506.069170 1349.887851,1521.821801 1338.638745,1541.065284"/>
    <poly id="1211887360" type="building.yes" color="255,230,230" fill="1" layer="-1.00" shape="1072.859341,1517.493021 1064.647620,1515.368624 1067.441354,1504.688542 1069.153989,1505.130174 1069.392616,1504.228064 1074.169940,1505.458234 1073.641969,1507.485079 1075.363581,1507.926584 1072.859341,1517.493021"/>
    <poly id="1211887361" type="building.yes" color="255,230,230" fill="1" layer="-1.00" shape="1062.003998,1514.507527 1061.283155,1514.340260 1060.868283,1516.110306 1054.425749,1514.615363 1057.135169,1503.059953 1064.298712,1504.733258 1062.003998,1514.507527"/>
    <poly id="1211887362" type="building.yes" color="255,230,230" fill="1" layer="-1.00" shape="1047.555600,1510.208463 1040.176404,1508.527146 1042.358316,1499.031857 1043.385393,1499.261336 1043.664650,1498.059076 1050.007482,1499.488859 1047.555600,1510.208463"/>
    <poly id="1211887363" type="building.yes" color="255,230,230" fill="1" layer="-1.00" shape="1033.939826,1509.514620 1024.489147,1507.418990 1027.865851,1492.270309 1037.325525,1494.365817 1033.939826,1509.514620"/>
    <poly id="1211887364" type="building.yes" color="255,230,230" fill="1" layer="-1.00" shape="1025.072355,1489.713785 1030.012105,1490.997095 1032.363054,1482.020874 1027.423299,1480.737562 1025.072355,1489.713785"/>
    <poly id="1211887365" type="building.yes" color="255,230,230" fill="1" layer="-1.00" shape="991.219398,1504.552934 989.295370,1504.402803 989.173501,1505.935682 984.300419,1505.550159 984.406540,1504.172839 982.743218,1504.041188 983.749966,1491.489233 986.564181,1491.715450 986.708880,1489.893770 990.691944,1490.214299 990.416713,1493.591170 992.097995,1493.722567 991.219398,1504.552934"/>
    <poly id="1211887366" type="building.yes" color="255,230,230" fill="1" layer="-1.00" shape="977.835774,1503.134682 976.082661,1503.004312 975.962690,1504.670306 971.081260,1504.329291 971.185483,1502.818854 970.322553,1502.764571 971.190832,1490.580728 978.697296,1491.106270 977.835774,1503.134682"/>
    <poly id="1211887367" type="building.yes" color="255,230,230" fill="1" layer="-1.00" shape="1002.468172,1464.516501 998.833519,1463.436530 1000.445773,1458.087863 1004.080428,1459.167835 1002.468172,1464.516501"/>
    <poly id="1211887368" type="building.yes" color="255,230,230" fill="1" layer="-1.00" shape="948.965004,1502.680390 939.741824,1502.057278 940.494652,1491.228694 943.649913,1491.438944 943.886998,1487.907281 949.954931,1488.320145 948.965004,1502.680390"/>
    <poly id="1211887369" type="building.yes" color="255,230,230" fill="1" layer="-1.00" shape="949.155221,1481.985056 946.364936,1481.547701 946.859913,1478.467269 949.641220,1478.904753 949.155221,1481.985056"/>
    <poly id="1211887370" type="building.yes" color="255,230,230" fill="1" layer="-1.00" shape="945.419134,1466.216453 946.111597,1458.084874 958.349274,1459.119970 957.656642,1467.240455 945.419134,1466.216453"/>
    <poly id="1211887371" type="building.yes" color="255,230,230" fill="1" layer="-1.00" shape="927.288262,1501.624428 916.913714,1500.873503 917.387891,1494.442602 916.574092,1494.054766 917.610285,1479.793713 923.462730,1480.209628 922.764845,1489.850240 928.122963,1490.239915 927.288262,1501.624428"/>
    <poly id="1211887372" type="building.yes" color="255,230,230" fill="1" layer="-1.00" shape="931.541175,1466.036882 925.857111,1465.463229 926.761232,1456.429919 924.809622,1456.235814 925.265777,1451.691362 930.257200,1452.186119 929.785297,1456.886129 932.573221,1457.157084 932.400331,1458.890404 933.348975,1459.287416 933.129164,1461.509595 932.005048,1461.403559 931.541175,1466.036882"/>
    <poly id="1211887373" type="building.yes" color="255,230,230" fill="1" layer="-1.00" shape="908.780304,1500.467898 900.353718,1499.655954 901.621342,1486.512220 909.337335,1487.245527 909.031879,1490.389833 909.751305,1490.457250 908.780304,1500.467898"/>
    <poly id="1211887374" type="building.yes" color="255,230,230" fill="1" layer="-1.00" shape="880.139395,1497.869177 872.089445,1497.018607 873.350167,1485.284062 881.400127,1486.134633 880.139395,1497.869177"/>
    <poly id="1211887375" type="building.yes" color="255,230,230" fill="1" layer="-1.00" shape="865.496621,1496.324802 856.647663,1494.864300 858.649669,1482.841805 862.556676,1483.496217 862.738404,1482.384103 867.689505,1483.201160 865.496621,1496.324802"/>
    <poly id="1211887376" type="building.yes" color="255,230,230" fill="1" layer="-1.00" shape="835.655360,1491.424427 826.268125,1490.004915 828.486396,1475.516183 837.864667,1476.935826 835.655360,1491.424427"/>
    <poly id="1211887377" type="building.yes" color="255,230,230" fill="1" layer="-1.00" shape="820.556181,1489.365157 810.953445,1487.948733 812.821302,1475.340090 822.432872,1476.745295 820.556181,1489.365157"/>
    <poly id="1211887378" type="building.yes" color="255,230,230" fill="1" layer="-1.00" shape="805.465061,1487.871655 795.619729,1486.447612 797.787519,1471.571257 798.723551,1471.713243 799.026512,1469.656302 807.359907,1470.857812 806.975695,1473.515055 807.518232,1473.773605 805.465061,1487.871655"/>
    <poly id="1211887379" type="building.yes" color="255,230,230" fill="1" layer="-1.00" shape="798.222931,1463.687422 794.934513,1462.957646 796.040375,1458.004491 799.328795,1458.734267 798.222931,1463.687422"/>
    <poly id="1211887380" type="building.yes" color="255,230,230" fill="1" layer="-1.00" shape="794.296053,1462.900179 791.234009,1462.300319 792.164559,1457.649235 795.226763,1458.260188 794.296053,1462.900179"/>
    <poly id="1211887381" type="building.yes" color="255,230,230" fill="1" layer="-1.00" shape="734.051841,1516.362054 736.962724,1503.849461 739.233342,1504.371830 739.419327,1503.559223 743.185678,1504.426397 742.881108,1505.739982 744.962375,1506.209577 744.005986,1510.306274 749.168824,1511.486386 747.814634,1517.286331 743.012225,1516.189839 742.512691,1518.316159 734.051841,1516.362054"/>
    <poly id="1211887382" type="building.yes" color="255,230,230" fill="1" layer="-1.00" shape="737.689103,1523.289076 730.838541,1522.155240 730.003045,1527.171120 736.853603,1528.304955 737.689103,1523.289076"/>
    <poly id="1211887383" type="building.yes" color="255,230,230" fill="1" layer="-1.00" shape="814.706583,1541.429797 800.463098,1538.282125 798.665581,1546.374003 806.134115,1548.020557 806.657435,1545.671997 813.423238,1547.162148 814.706583,1541.429797"/>
    <poly id="1211887384" type="building.yes" color="255,230,230" fill="1" layer="-1.00" shape="811.816250,1521.377511 813.274582,1509.651230 817.035228,1510.119089 817.261176,1508.329533 821.057739,1508.796881 819.373291,1522.301623 811.816250,1521.377511"/>
    <poly id="1211887385" type="building.yes" color="255,230,230" fill="1" layer="-1.00" shape="821.334746,1521.297276 822.465209,1511.140103 821.268791,1511.001826 821.745850,1506.667878 823.634758,1506.873949 823.810313,1505.329206 831.653902,1506.193768 829.870967,1522.240723 821.334746,1521.297276"/>
    <poly id="1211887386" type="building.yes" color="255,230,230" fill="1" layer="-1.00" shape="838.473570,1507.050742 848.547297,1508.748958 845.928780,1524.142105 835.855228,1522.454985 838.473570,1507.050742"/>
    <poly id="1211887387" type="building.yes" color="255,230,230" fill="1" layer="-1.00" shape="854.499794,1509.884592 862.476354,1511.257667 860.468343,1522.858628 852.491952,1521.496648 854.499794,1509.884592"/>
    <poly id="1211887388" type="building.yes" color="255,230,230" fill="1" layer="-1.00" shape="876.826812,1511.197391 867.217537,1510.579857 866.740528,1522.480759 876.065784,1523.335339 876.826812,1511.197391"/>
    <poly id="1211887389" type="building.yes" color="255,230,230" fill="1" layer="-1.00" shape="884.424606,1511.200074 892.836356,1511.601689 892.042102,1527.712206 883.630210,1527.299499 884.424606,1511.200074"/>
    <poly id="1211887390" type="building.yes" color="255,230,230" fill="1" layer="-1.00" shape="899.512792,1511.861609 898.819831,1524.997156 907.545039,1525.338843 908.121287,1512.204959 899.512792,1511.861609"/>
    <poly id="1211887391" type="building.yes" color="255,230,230" fill="1" layer="-1.00" shape="929.178556,1551.104476 930.478586,1543.385858 934.000886,1544.145638 932.991312,1551.449594 929.178556,1551.104476"/>
    <poly id="1211887392" type="building.yes" color="255,230,230" fill="1" layer="-1.00" shape="936.299942,1529.012265 937.431322,1515.127097 946.611173,1515.861776 945.488758,1529.746815 936.299942,1529.012265"/>
    <poly id="1211887393" type="building.yes" color="255,230,230" fill="1" layer="-1.00" shape="953.230723,1531.045647 954.142447,1518.761325 962.620354,1519.395065 961.866055,1529.491382 960.652475,1529.408807 960.494880,1531.585719 953.230723,1531.045647"/>
    <poly id="1211887394" type="building.yes" color="255,230,230" fill="1" layer="-1.00" shape="966.339489,1533.976726 967.723407,1519.533205 975.996849,1520.314108 974.621896,1534.757500 966.339489,1533.976726"/>
    <poly id="1211887395" type="building.yes" color="255,230,230" fill="1" layer="-1.00" shape="983.170677,1518.924914 992.900289,1519.796052 991.976619,1529.983537 991.077460,1529.907577 990.906614,1531.785105 982.085153,1530.989801 983.170677,1518.924914"/>
    <poly id="1211887396" type="building.yes" color="255,230,230" fill="1" layer="-1.00" shape="999.807954,1519.897423 1008.509899,1521.759590 1005.493619,1535.727053 996.791687,1533.864890 999.807954,1519.897423"/>
    <poly id="1211887397" type="building.yes" color="255,230,230" fill="1" layer="-1.00" shape="1010.555262,1536.742331 1013.049595,1525.223252 1021.769647,1527.096269 1019.486198,1537.658154 1020.819345,1537.938749 1020.078147,1541.388823 1011.141982,1539.474503 1011.672284,1536.981621 1010.555262,1536.742331"/>
    <poly id="1211887398" type="building.yes" color="255,230,230" fill="1" layer="-1.00" shape="1008.263817,1556.835144 1009.322723,1552.992212 1006.347517,1552.180233 1005.297749,1556.034130 1008.263817,1556.835144"/>
    <poly id="1211887399" type="building.yes" color="255,230,230" fill="1" layer="-1.00" shape="1035.425100,1528.055813 1043.725501,1530.101254 1043.300707,1531.804870 1044.715612,1532.150877 1041.844914,1543.730778 1032.129622,1541.339335 1035.425100,1528.055813"/>
    <poly id="1211887400" type="building.yes" color="255,230,230" fill="1" layer="-1.00" shape="1036.427490,1559.363403 1038.978787,1560.048283 1037.665184,1564.926692 1035.104909,1564.241941 1036.427490,1559.363403"/>
    <poly id="1211887401" type="building.yes" color="255,230,230" fill="1" layer="-1.00" shape="1055.422327,1532.897227 1064.833126,1535.348505 1061.212964,1549.169205 1051.793357,1546.729152 1055.422327,1532.897227"/>
    <poly id="1211887402" type="building.yes" color="255,230,230" fill="1" layer="-1.00" shape="1052.677525,1556.480379 1060.285254,1558.446929 1057.568730,1568.870727 1049.961008,1566.904179 1052.677525,1556.480379"/>
    <poly id="1211889032" type="amenity.parking" color="184,184,179" fill="1" layer="-1.00" shape="1229.784838,1642.934486 1238.163702,1630.288908 1273.813042,1664.787861 1270.884709,1667.902839 1271.023180,1669.432013 1274.047324,1673.061573 1269.486440,1678.207979 1266.118900,1675.060394 1264.330544,1674.974848 1260.938630,1678.329415 1227.827493,1646.756870 1229.784838,1642.934486"/>
    <poly id="1211889538" type="amenity.parking" color="184,184,179" fill="1" layer="-1.00" shape="1895.338536,1859.566718 1781.587684,1800.795230 1699.701862,1777.178523 1703.322592,1767.141578 1772.795222,1785.519485 1793.757582,1793.910463 1899.602533,1850.552622 1895.338536,1859.566718"/>
    <poly id="1212112362" type="amenity.parking" color="184,184,179" fill="1" layer="-1.00" shape="906.952162,1407.449237 912.002774,1406.423093 919.264538,1407.418074 924.040592,1406.662134 924.782546,1410.202042 925.874043,1409.909113 928.333427,1429.357325 910.593609,1432.328368 906.952162,1407.449237"/>
    <poly id="1212112363" type="amenity.parking" color="184,184,179" fill="1" layer="-1.00" shape="902.380407,1384.092314 899.460469,1380.860819 895.355120,1380.786167 851.673850,1388.487407 853.312461,1397.595439 850.601032,1399.542467 852.925979,1411.436717 904.556726,1402.579267 902.380407,1384.092314"/>
    <poly id="1212112364" type="amenity.parking" color="184,184,179" fill="1" layer="-1.00" shape="937.673278,1393.397759 932.199162,1393.065204 934.106722,1383.229842 940.553142,1384.358501 941.843525,1378.481836 962.171035,1383.784346 984.588238,1392.041769 986.570593,1396.917640 1004.985484,1402.247478 1011.844786,1413.455883 1006.705131,1427.153996 1001.480989,1425.453127 1003.957006,1416.430737 953.509392,1400.528362 949.424433,1401.884681 945.614350,1414.343423 997.063450,1429.943015 999.522989,1431.749810 995.167452,1443.117865 946.894510,1435.494909 946.828471,1430.858039 951.610517,1430.523648 948.269177,1426.077662 939.907004,1415.290139 938.040036,1409.059014 937.673278,1393.397759"/>
    <poly id="1212112365" type="amenity.parking" color="184,184,179" fill="1" layer="-1.00" shape="1095.326667,1404.934005 1108.546713,1370.217600 1106.069093,1362.719179 1111.926585,1353.382444 1116.050085,1354.732892 1118.867310,1353.905063 1168.057601,1398.873577 1163.421511,1405.685386 1167.107094,1409.716033 1156.397506,1432.779943 1141.531962,1440.203215 1094.046205,1414.671643 1095.326667,1404.934005"/>
    <poly id="1212112366" type="amenity.parking" color="184,184,179" fill="1" layer="-1.00" shape="1158.570932,1452.365407 1156.397506,1432.779943 1167.107094,1409.716033 1171.626190,1406.045838 1203.948469,1429.430041 1238.420552,1459.385472 1227.816667,1478.520079 1212.040707,1477.490510 1208.603821,1479.580877 1158.570932,1452.365407"/>
    <poly id="1212112367" type="amenity.parking" color="184,184,179" fill="1" layer="-1.00" shape="1234.179134,1493.974083 1238.504183,1476.648455 1259.860217,1481.681841 1258.981882,1486.864694 1263.713810,1486.797471 1266.674976,1484.724979 1268.183894,1479.677408 1265.767100,1474.552460 1274.954782,1463.826009 1280.862850,1473.849838 1282.233668,1481.208691 1279.210613,1489.672906 1276.748342,1494.623065 1271.436896,1498.149128 1266.895592,1500.255160 1257.288087,1500.391646 1252.704392,1499.513673 1234.179134,1493.974083"/>
    <poly id="123416510" type="building.yes" color="255,230,230" fill="1" layer="-1.00" shape="2659.627146,1131.073854 2666.849057,1129.874015 2666.348740,1126.863161 2669.153193,1126.391068 2668.545693,1122.782582 2669.746430,1122.588198 2668.716212,1116.378288 2669.513659,1116.245043 2667.375621,1103.415792 2666.578173,1103.549037 2665.538971,1097.339253 2664.338230,1097.533637 2663.739861,1093.936118 2660.935242,1094.397119 2660.426098,1091.397484 2653.213136,1092.597201 2653.713303,1095.596962 2650.908840,1096.069059 2651.516349,1099.677545 2650.306629,1099.872057 2651.345997,1106.092932 2650.548549,1106.226179 2652.686456,1119.044333 2653.483903,1118.911087 2654.523267,1125.131963 2655.723848,1124.926484 2656.322375,1128.535096 2659.126827,1128.063000 2659.627146,1131.073854"/>
    <poly id="123416511" type="building.university" color="255,230,230" fill="1" layer="-1.00" shape="1871.959242,1764.045789 1874.148080,1765.146555 1869.157064,1774.825557 1870.876342,1775.744342 1882.627612,1781.802624 1895.467782,1756.889928 1881.906949,1749.880831 1881.776659,1750.193339 1880.666204,1749.143897 1861.389397,1739.286502 1841.997234,1729.530637 1838.125948,1727.577149 1838.554178,1726.106527 1824.585875,1719.502705 1811.543726,1744.729032 1817.333402,1747.709419 1814.071894,1753.946671 1814.002732,1754.136268 1816.590408,1755.497664 1819.921394,1749.093002 1825.484871,1751.954547 1830.344939,1742.543656 1871.959242,1764.045789"/>
    <poly id="123416512" type="building.university" color="255,230,230" fill="1" layer="-1.00" shape="1579.585457,1100.718563 1577.563085,1104.408632 1590.192406,1111.508160 1592.291510,1107.528532 1596.743305,1109.862031 1600.916312,1102.025181 1602.927044,1098.146664 1599.479343,1096.320413 1601.560968,1092.374320 1588.783223,1085.576448 1589.474052,1084.257427 1563.838784,1070.740531 1561.957880,1074.273267 1543.037462,1064.344893 1537.384994,1075.520204 1543.656874,1080.801396 1555.793668,1087.364192 1557.257564,1084.192410 1564.578640,1088.094040 1562.628577,1091.816374 1579.585457,1100.718563"/>