<?xml version="1.0" encoding="UTF-8"?>

<!-- generated on 2023-10-23 12:48:38.214175 by osmWebWizard.py UNKNOWN
<configuration>
    <net-file value="/home/chandler/Sumo/2023-10-23-12-48-32/osm.net.xml.gz"/>
    <output-trip-file value="/home/chandler/Sumo/2023-10-23-12-48-32/osm.passenger.trips.xml"/>
    <route-file value="/home/chandler/Sumo/2023-10-23-12-48-32/osm.passenger.rou.xml"/>
    <prefix value="veh"/>
    <trip-attributes value="departLane=&quot;best&quot;"/>
    <fringe-start-attributes value="departSpeed=&quot;max&quot;"/>
    <lanes value="True"/>
    <fringe-factor value="5"/>
    <allow-fringe.min-length value="1000.0"/>
    <min-distance value="300.0"/>
    <min-distance.fringe value="10.0"/>
    <vehicle-class value="passenger"/>
    <remove-loops value="True"/>
    <via-edge-types value="highway.motorway,highway.motorway_link,highway.trunk_link,highway.primary_link,highway.secondary_link,highway.tertiary_link"/>
    <validate value="True"/>
    <insertion-density value="12.0"/>
</configuration>
-->

<!-- generated on 2023-10-23 12:48:38 by Eclipse SUMO duarouter Version 1.17.0
<configuration xmlns:xsi="http://www.w3.org/2001/XMLSchema-instance" xsi:noNamespaceSchemaLocation="http://sumo.dlr.de/xsd/duarouterConfiguration.xsd">

    <input>
        <net-file value="/home/chandler/Sumo/2023-10-23-12-48-32/osm.net.xml.gz"/>
        <route-files value="/home/chandler/Sumo/2023-10-23-12-48-32/osm.passenger.trips.xml"/>
    </input>

    <output>
        <output-file value="/home/chandler/Sumo/2023-10-23-12-48-32/osm.passenger.trips.xml.tmp"/>
        <alternatives-output value="NUL"/>
        <write-trips value="true"/>
    </output>

    <processing>
        <remove-loops value="true"/>
    </processing>

    <time>
        <begin value="0.0"/>
        <end value="3600.0"/>
    </time>

    <report>
        <no-warnings value="true"/>
        <ignore-errors value="true"/>
        <no-step-log value="true"/>
    </report>

</configuration>
-->

<routes xmlns:xsi="http://www.w3.org/2001/XMLSchema-instance" xsi:noNamespaceSchemaLocation="http://sumo.dlr.de/xsd/routes_file.xsd">
    <vType id="veh_passenger" vClass="passenger"/>
    <trip id="veh0" type="veh_passenger" depart="0.00" departLane="best" from="19657648#1" to="-160039790#0"/>
    <trip id="veh1" type="veh_passenger" depart="2.82" departLane="best" departSpeed="max" from="-232788403" to="-19667237#0"/>
    <trip id="veh2" type="veh_passenger" depart="5.64" departLane="best" departSpeed="max" from="19666791#0" to="19665979#2"/>
    <trip id="veh3" type="veh_passenger" depart="8.46" departLane="best" from="779366706#0" to="-19655255#5"/>
    <trip id="veh4" type="veh_passenger" depart="11.29" departLane="best" departSpeed="max" from="-901684136" to="-160039790#2"/>
    <trip id="veh5" type="veh_passenger" depart="14.11" departLane="best" departSpeed="max" from="-19665979#2" to="188259386#1"/>
    <trip id="veh6" type="veh_passenger" depart="16.93" departLane="best" departSpeed="max" from="-160035932" to="-19666035#0"/>
    <trip id="veh7" type="veh_passenger" depart="19.75" departLane="best" from="-19659845#0" to="-19655255#1"/>
    <trip id="veh8" type="veh_passenger" depart="22.57" departLane="best" from="19666035#1" to="19659845#1"/>
    <trip id="veh9" type="veh_passenger" depart="25.39" departLane="best" from="233003124#2" to="-1079982356#1"/>
    <trip id="veh10" type="veh_passenger" depart="28.21" departLane="best" from="-232958897#1" to="19667237#2"/>
    <trip id="veh11" type="veh_passenger" depart="31.04" departLane="best" from="-757034001#6" to="-19662524#5"/>
    <trip id="veh12" type="veh_passenger" depart="33.86" departLane="best" from="902260319#2" to="901253739#3"/>
    <trip id="veh13" type="veh_passenger" depart="36.68" departLane="best" from="-19655255#2" to="19655499#6"/>
    <trip id="veh14" type="veh_passenger" depart="39.50" departLane="best" from="524124466#4" to="19661305#1"/>
    <trip id="veh15" type="veh_passenger" depart="42.32" departLane="best" from="233003124#0" to="231711248#2"/>
    <trip id="veh17" type="veh_passenger" depart="47.97" departLane="best" from="-901253741#5" to="19655257#6"/>
    <trip id="veh18" type="veh_passenger" depart="50.79" departLane="best" from="442601016#0" to="19662428#1"/>
    <trip id="veh19" type="veh_passenger" depart="53.61" departLane="best" from="674799607" to="19657531#1"/>
    <trip id="veh20" type="veh_passenger" depart="56.43" departLane="best" departSpeed="max" from="19665790#0" to="-186412722#1"/>
    <trip id="veh21" type="veh_passenger" depart="59.25" departLane="best" from="-19666999#6" to="-674799594#3"/>
    <trip id="veh22" type="veh_passenger" depart="62.07" departLane="best" from="-19654823#1" to="-19667583#3"/>
    <trip id="veh23" type="veh_passenger" depart="64.89" departLane="best" departSpeed="max" from="19657648#0" to="-901455884#6"/>
    <trip id="veh24" type="veh_passenger" depart="67.72" departLane="best" from="-901253737#1" to="-19666388#0"/>
    <trip id="veh25" type="veh_passenger" depart="70.54" departLane="best" departSpeed="max" from="-232788401" to="901463061"/>
    <trip id="veh26" type="veh_passenger" depart="73.36" departLane="best" departSpeed="max" from="19659208" to="19661599#2"/>
    <trip id="veh27" type="veh_passenger" depart="76.18" departLane="best" from="-19662527#3" to="231711248#0"/>
    <trip id="veh28" type="veh_passenger" depart="79.00" departLane="best" from="-19662524#12" to="902260322#3"/>
    <trip id="veh29" type="veh_passenger" depart="81.82" departLane="best" from="910457686#2" to="-19663406#2"/>
    <trip id="veh30" type="veh_passenger" depart="84.64" departLane="best" from="-186412716#4" to="19666791#2"/>
    <trip id="veh31" type="veh_passenger" depart="87.47" departLane="best" from="-473643615#2" to="233003124#1"/>
    <trip id="veh32" type="veh_passenger" depart="90.29" departLane="best" from="-19666999#8" to="-160039790#5"/>
    <trip id="veh33" type="veh_passenger" depart="93.11" departLane="best" departSpeed="max" from="-665218549" to="-451259178#3"/>
    <trip id="veh36" type="veh_passenger" depart="101.57" departLane="best" from="-19660489#2" to="-910457686#1"/>
    <trip id="veh37" type="veh_passenger" depart="104.39" departLane="best" from="-901253741#2" to="-160035189#3"/>
    <trip id="veh38" type="veh_passenger" depart="107.22" departLane="best" from="-232788400#2" to="232788063#2"/>
    <trip id="veh39" type="veh_passenger" depart="110.04" departLane="best" departSpeed="max" from="186412724" to="-348721056#3"/>
    <trip id="veh40" type="veh_passenger" depart="112.86" departLane="best" from="19653781#0" to="-901253741#3"/>
    <trip id="veh41" type="veh_passenger" depart="115.68" departLane="best" from="901451605#0" to="-19666999#4"/>
    <trip id="veh42" type="veh_passenger" depart="118.50" departLane="best" from="910784056#7" to="-19650648#0"/>
    <trip id="veh43" type="veh_passenger" depart="121.32" departLane="best" from="-19655255#0" to="-186412722#3"/>
    <trip id="veh44" type="veh_passenger" depart="124.15" departLane="best" from="-19656389#2" to="19662527#0"/>
    <trip id="veh45" type="veh_passenger" depart="126.97" departLane="best" from="232787114#1" to="1083136143#0"/>
    <trip id="veh46" type="veh_passenger" depart="129.79" departLane="best" from="-19650648#5" to="902260322#6"/>
    <trip id="veh47" type="veh_passenger" depart="132.61" departLane="best" from="910784056#5" to="19654008"/>
    <trip id="veh49" type="veh_passenger" depart="138.25" departLane="best" from="-1083136142#1" to="-216215521#1"/>
    <trip id="veh50" type="veh_passenger" depart="141.07" departLane="best" from="19662527#2" to="19654830#1"/>
    <trip id="veh51" type="veh_passenger" depart="143.90" departLane="best" departSpeed="max" from="-232788401" to="19664073"/>
    <trip id="veh52" type="veh_passenger" depart="146.72" departLane="best" from="-19657146#2" to="111279972#0"/>
    <trip id="veh53" type="veh_passenger" depart="149.54" departLane="best" departSpeed="max" from="-908398805" to="902260319#7"/>
    <trip id="veh54" type="veh_passenger" depart="152.36" departLane="best" departSpeed="max" from="757034002#0" to="-348721056#4"/>
    <trip id="veh55" type="veh_passenger" depart="155.18" departLane="best" from="111280008#0" to="-19665626"/>
    <trip id="veh56" type="veh_passenger" depart="158.00" departLane="best" from="901253739#4" to="779366706#0"/>
    <trip id="veh57" type="veh_passenger" depart="160.82" departLane="best" from="451259182#1" to="-19663406#0"/>
    <trip id="veh58" type="veh_passenger" depart="163.65" departLane="best" from="19655257#2" to="-19662524#11"/>
    <trip id="veh59" type="veh_passenger" depart="166.47" departLane="best" from="-19667425#2" to="-19654837#0"/>
    <trip id="veh60" type="veh_passenger" depart="169.29" departLane="best" from="216215521#4" to="19654524#0"/>
    <trip id="veh61" type="veh_passenger" depart="172.11" departLane="best" from="1008686229" to="901241815#1"/>
    <trip id="veh62" type="veh_passenger" depart="174.93" departLane="best" from="160034226#2" to="901455884#0"/>
    <trip id="veh63" type="veh_passenger" depart="177.75" departLane="best" departSpeed="max" from="757034003#0" to="665218549"/>
    <trip id="veh64" type="veh_passenger" depart="180.57" departLane="best" from="-545699322" to="-188259387#0"/>
    <trip id="veh65" type="veh_passenger" depart="183.40" departLane="best" departSpeed="max" from="757034003#0" to="901684136"/>
    <trip id="veh66" type="veh_passenger" depart="186.22" departLane="best" from="-19654830#4" to="160039790#6"/>
    <trip id="veh67" type="veh_passenger" depart="189.04" departLane="best" from="-19653781#1" to="232788404"/>
    <trip id="veh68" type="veh_passenger" depart="191.86" departLane="best" from="-19667583#3" to="-19659208"/>
    <trip id="veh69" type="veh_passenger" depart="194.68" departLane="best" from="1008686233#0" to="19655257#3"/>
    <trip id="veh70" type="veh_passenger" depart="197.50" departLane="best" from="-232788400#2" to="779366706#2"/>
    <trip id="veh71" type="veh_passenger" depart="200.33" departLane="best" departSpeed="max" from="-901684136" to="-19666388#0"/>
    <trip id="veh72" type="veh_passenger" depart="203.15" departLane="best" departSpeed="max" from="160039790#0" to="231711248#2"/>
    <trip id="veh73" type="veh_passenger" depart="205.97" departLane="best" from="-19665730#0" to="757034004#3"/>
    <trip id="veh74" type="veh_passenger" depart="208.79" departLane="best" from="910784056#4" to="19665161#3"/>
    <trip id="veh75" type="veh_passenger" depart="211.61" departLane="best" departSpeed="max" from="-902260322#9" to="19651692"/>
    <trip id="veh76" type="veh_passenger" depart="214.43" departLane="best" departSpeed="max" from="-19657410#2" to="19667237#2"/>
    <trip id="veh77" type="veh_passenger" depart="217.25" departLane="best" from="-757034001#3" to="19659845#1"/>
    <trip id="veh78" type="veh_passenger" depart="220.08" departLane="best" from="19667237#0" to="19666999#5"/>
    <trip id="veh79" type="veh_passenger" depart="222.90" departLane="best" departSpeed="max" from="-19653781#2" to="19662527#5"/>
    <trip id="veh80" type="veh_passenger" depart="225.72" departLane="best" from="-19666999#8" to="901253748#1"/>
    <trip id="veh81" type="veh_passenger" depart="228.54" departLane="best" from="674799596#1" to="-19654524#1"/>
    <trip id="veh82" type="veh_passenger" depart="231.36" departLane="best" from="19667583#1" to="-19665792#0"/>
    <trip id="veh83" type="veh_passenger" depart="234.18" departLane="best" from="19665977#1" to="-19660366#0"/>
    <trip id="veh84" type="veh_passenger" depart="237.00" departLane="best" from="-901451605#3" to="19657161#1"/>
    <trip id="veh85" type="veh_passenger" depart="239.83" departLane="best" from="1008682021#2" to="233003127"/>
    <trip id="veh86" type="veh_passenger" depart="242.65" departLane="best" from="216219742#1" to="19665792#1"/>
    <trip id="veh88" type="veh_passenger" depart="248.29" departLane="best" departSpeed="max" from="-901684136" to="160037071#1"/>
    <trip id="veh89" type="veh_passenger" depart="251.11" departLane="best" from="19666035#2" to="19665979#0"/>
    <trip id="veh90" type="veh_passenger" depart="253.93" departLane="best" from="-908398803#0" to="-19655499#8"/>
    <trip id="veh91" type="veh_passenger" depart="256.75" departLane="best" from="674799607" to="-232788064#2"/>
    <trip id="veh92" type="veh_passenger" depart="259.58" departLane="best" from="-19665161#0" to="156515349"/>
    <trip id="veh93" type="veh_passenger" depart="262.40" departLane="best" departSpeed="max" from="-901684136" to="524124466#5"/>
    <trip id="veh94" type="veh_passenger" depart="265.22" departLane="best" departSpeed="max" from="-231973475#2" to="901451605#2"/>
    <trip id="veh96" type="veh_passenger" depart="270.86" departLane="best" from="999247298#1" to="665218550#1"/>
    <trip id="veh97" type="veh_passenger" depart="273.68" departLane="best" departSpeed="max" from="902263998" to="901451609"/>
    <trip id="veh98" type="veh_passenger" depart="276.51" departLane="best" from="524124466#5" to="19664273#0"/>
    <trip id="veh99" type="veh_passenger" depart="279.33" departLane="best" from="1083136144#0" to="-19666809#0"/>
    <trip id="veh100" type="veh_passenger" depart="282.15" departLane="best" from="-901451605#1" to="-188259387#2"/>
    <trip id="veh101" type="veh_passenger" depart="284.97" departLane="best" from="-901253741#5" to="-910457686#1"/>
    <trip id="veh102" type="veh_passenger" depart="287.79" departLane="best" from="-232788400#2" to="233003125#3"/>
    <trip id="veh103" type="veh_passenger" depart="290.61" departLane="best" departSpeed="max" from="-908398806" to="1083136143#1"/>
    <trip id="veh104" type="veh_passenger" depart="293.43" departLane="best" from="902260319#2" to="910784056#8"/>
    <trip id="veh105" type="veh_passenger" depart="296.26" departLane="best" from="-186412716#2" to="216215520#3"/>
    <trip id="veh106" type="veh_passenger" depart="299.08" departLane="best" from="19661979" to="757034001#3"/>
    <trip id="veh107" type="veh_passenger" depart="301.90" departLane="best" departSpeed="max" from="902263998" to="19657531#3"/>
    <trip id="veh108" type="veh_passenger" depart="304.72" departLane="best" from="160039790#12" to="232788400#0"/>
    <trip id="veh109" type="veh_passenger" depart="307.54" departLane="best" from="-19650648#0" to="19658883"/>
    <trip id="veh110" type="veh_passenger" depart="310.36" departLane="best" from="111280008#1" to="757034001#6"/>
    <trip id="veh111" type="veh_passenger" depart="313.18" departLane="best" departSpeed="max" from="-19662428#1" to="902260322#9"/>
    <trip id="veh112" type="veh_passenger" depart="316.01" departLane="best" from="-19654823#1" to="19665790#4"/>
    <trip id="veh113" type="veh_passenger" depart="318.83" departLane="best" from="19654823#4" to="19665979#2"/>
    <trip id="veh114" type="veh_passenger" depart="321.65" departLane="best" from="-19667425#1" to="-19657648#2"/>
    <trip id="veh116" type="veh_passenger" depart="327.29" departLane="best" from="-19654823#3" to="19662524#0"/>
    <trip id="veh117" type="veh_passenger" depart="330.11" departLane="best" from="901463066#0" to="19658883"/>
    <trip id="veh118" type="veh_passenger" depart="332.93" departLane="best" from="160037071#0" to="-901455885#1"/>
    <trip id="veh119" type="veh_passenger" depart="335.76" departLane="best" departSpeed="max" from="-19665730#1" to="216215520#0"/>
    <trip id="veh120" type="veh_passenger" depart="338.58" departLane="best" from="-19667583#2" to="-910457686#1"/>
    <trip id="veh121" type="veh_passenger" depart="341.40" departLane="best" from="19662524#0" to="-757034001#7"/>
    <trip id="veh122" type="veh_passenger" depart="344.22" departLane="best" departSpeed="max" from="-665218549" to="232788401"/>
    <trip id="veh123" type="veh_passenger" depart="347.04" departLane="best" departSpeed="max" from="-19653781#2" to="160035189#2"/>
    <trip id="veh124" type="veh_passenger" depart="349.86" departLane="best" from="1008686233#1" to="910784056#8"/>
    <trip id="veh125" type="veh_passenger" depart="352.69" departLane="best" departSpeed="max" from="-19654008" to="-19666809#0"/>
    <trip id="veh126" type="veh_passenger" depart="355.51" departLane="best" from="-232788400#2" to="-901455885#0"/>
    <trip id="veh127" type="veh_passenger" depart="358.33" departLane="best" departSpeed="max" from="757034003#0" to="901241815#3"/>
    <trip id="veh128" type="veh_passenger" depart="361.15" departLane="best" from="-901253737#0" to="-19662524#8"/>
    <trip id="veh129" type="veh_passenger" depart="363.97" departLane="best" from="451259178#1" to="19667425#3"/>
    <trip id="veh130" type="veh_passenger" depart="366.79" departLane="best" from="19655257#6" to="-910457686#3"/>
    <trip id="veh131" type="veh_passenger" depart="369.61" departLane="best" from="19660366#1" to="1083136142#1"/>
    <trip id="veh132" type="veh_passenger" depart="372.44" departLane="best" from="901455883" to="-757034001#6"/>
    <trip id="veh133" type="veh_passenger" depart="375.26" departLane="best" from="-19661305#1" to="901463064#0"/>
    <trip id="veh134" type="veh_passenger" depart="378.08" departLane="best" departSpeed="max" from="-19659845#1" to="19657531#3"/>
    <trip id="veh135" type="veh_passenger" depart="380.90" departLane="best" from="19655779#1" to="-19655499#1"/>
    <trip id="veh136" type="veh_passenger" depart="383.72" departLane="best" departSpeed="max" from="-232788403" to="19661583"/>
    <trip id="veh137" type="veh_passenger" depart="386.54" departLane="best" departSpeed="max" from="19665977#0" to="-19666035#0"/>
    <trip id="veh138" type="veh_passenger" depart="389.36" departLane="best" from="-19657531#2" to="-352679656#1"/>
    <trip id="veh139" type="veh_passenger" depart="392.19" departLane="best" from="1083136148" to="901253748#1"/>
    <trip id="veh140" type="veh_passenger" depart="395.01" departLane="best" from="524124466#2" to="-19655257#6"/>
    <trip id="veh141" type="veh_passenger" depart="397.83" departLane="best" departSpeed="max" from="-901684136" to="524124466#2"/>
    <trip id="veh142" type="veh_passenger" depart="400.65" departLane="best" from="-1076398821#3" to="232958897#2"/>
    <trip id="veh143" type="veh_passenger" depart="403.47" departLane="best" departSpeed="max" from="19657648#0" to="-348721056#2"/>
    <trip id="veh144" type="veh_passenger" depart="406.29" departLane="best" from="19666791#3" to="-19655257#5"/>
    <trip id="veh145" type="veh_passenger" depart="409.11" departLane="best" from="-902260319#5" to="156515347#0"/>
    <trip id="veh146" type="veh_passenger" depart="411.94" departLane="best" departSpeed="max" from="-19654008" to="-901241820#1"/>
    <trip id="veh147" type="veh_passenger" depart="414.76" departLane="best" from="901241820#0" to="19655255#2"/>
    <trip id="veh148" type="veh_passenger" depart="417.58" departLane="best" from="451259178#2" to="19658278#2"/>
    <trip id="veh149" type="veh_passenger" depart="420.40" departLane="best" from="19660983#4" to="-19659208"/>
    <trip id="veh150" type="veh_passenger" depart="423.22" departLane="best" from="-558031357#0" to="901253741#3"/>
    <trip id="veh152" type="veh_passenger" depart="428.87" departLane="best" from="-901241815#1" to="-19666388#0"/>
    <trip id="veh153" type="veh_passenger" depart="431.69" departLane="best" departSpeed="max" from="-231973475#2" to="-19656389#2"/>
    <trip id="veh154" type="veh_passenger" depart="434.51" departLane="best" from="216219742#0" to="-901241820#2"/>
    <trip id="veh156" type="veh_passenger" depart="440.15" departLane="best" from="19661979" to="901455884#2"/>
    <trip id="veh157" type="veh_passenger" depart="442.97" departLane="best" from="746266658#1" to="908398804"/>
    <trip id="veh158" type="veh_passenger" depart="445.79" departLane="best" from="901253740" to="-901241816#1"/>
    <trip id="veh159" type="veh_passenger" depart="448.62" departLane="best" from="-160035536#1" to="231973475#2"/>
    <trip id="veh160" type="veh_passenger" depart="451.44" departLane="best" from="-19667237#7" to="901455884#3"/>
    <trip id="veh162" type="veh_passenger" depart="457.08" departLane="best" from="901253740" to="-451259178#2"/>
    <trip id="veh163" type="veh_passenger" depart="459.90" departLane="best" from="255480207#2" to="19657146#2"/>
    <trip id="veh164" type="veh_passenger" depart="462.72" departLane="best" from="-757034001#8" to="-757034004#2"/>
    <trip id="veh165" type="veh_passenger" depart="465.54" departLane="best" from="19666388#1" to="-524124466#1"/>
    <trip id="veh166" type="veh_passenger" depart="468.37" departLane="best" from="186412029" to="-757034003#0"/>
    <trip id="veh167" type="veh_passenger" depart="471.19" departLane="best" from="232788064#2" to="-674799607"/>
    <trip id="veh168" type="veh_passenger" depart="474.01" departLane="best" from="160035189#5" to="-19665977#0"/>
    <trip id="veh170" type="veh_passenger" depart="479.65" departLane="best" from="-902260322#7" to="524124466#5"/>
    <trip id="veh171" type="veh_passenger" depart="482.47" departLane="best" departSpeed="max" from="19658278#0" to="-910784056#0"/>
    <trip id="veh173" type="veh_passenger" depart="488.12" departLane="best" from="901455883" to="19657531#3"/>
    <trip id="veh174" type="veh_passenger" depart="490.94" departLane="best" departSpeed="max" from="902263998" to="-19665626"/>
    <trip id="veh175" type="veh_passenger" depart="493.76" departLane="best" from="-902260322#1" to="451259178#0"/>
    <trip id="veh176" type="veh_passenger" depart="496.58" departLane="best" from="-19656389#1" to="111279972#0"/>
    <trip id="veh177" type="veh_passenger" depart="499.40" departLane="best" from="19655255#3" to="19650648#1"/>
    <trip id="veh178" type="veh_passenger" depart="502.22" departLane="best" departSpeed="max" from="-901253748#1" to="19657531#0"/>
    <trip id="veh179" type="veh_passenger" depart="505.05" departLane="best" from="232787114#2" to="19667583#6"/>
    <trip id="veh180" type="veh_passenger" depart="507.87" departLane="best" from="-1076398821#0" to="901451608#0"/>
    <trip id="veh181" type="veh_passenger" depart="510.69" departLane="best" departSpeed="max" from="160039790#0" to="216215520#4"/>
    <trip id="veh182" type="veh_passenger" depart="513.51" departLane="best" from="19666791#4" to="-19665795#0"/>
    <trip id="veh183" type="veh_passenger" depart="516.33" departLane="best" from="901241820#2" to="-19654524#1"/>
    <trip id="veh184" type="veh_passenger" depart="519.15" departLane="best" from="-19661305#2" to="-901241820#2"/>
    <trip id="veh185" type="veh_passenger" depart="521.97" departLane="best" departSpeed="max" from="-665218547" to="757034001#1"/>
    <trip id="veh186" type="veh_passenger" depart="524.80" departLane="best" from="19665979#1" to="-757034001#8"/>
    <trip id="veh187" type="veh_passenger" depart="527.62" departLane="best" from="-715072469" to="1008686229"/>
    <trip id="veh188" type="veh_passenger" depart="530.44" departLane="best" from="-901451605#2" to="757034001#11"/>
    <trip id="veh189" type="veh_passenger" depart="533.26" departLane="best" from="19657648#2" to="-1079982356#1"/>
    <trip id="veh190" type="veh_passenger" depart="536.08" departLane="best" from="901455884#2" to="19665979#2"/>
    <trip id="veh191" type="veh_passenger" depart="538.90" departLane="best" from="901241816#1" to="19662428#1"/>
    <trip id="veh192" type="veh_passenger" depart="541.72" departLane="best" from="1008686229" to="-674799596#0"/>
    <trip id="veh193" type="veh_passenger" depart="544.55" departLane="best" from="-902260322#1" to="-19657648#1"/>
    <trip id="veh194" type="veh_passenger" depart="547.37" departLane="best" from="19660489#0" to="160035932"/>
    <trip id="veh196" type="veh_passenger" depart="553.01" departLane="best" from="1008682022" to="901253741#6"/>
    <trip id="veh197" type="veh_passenger" depart="555.83" departLane="best" from="-232788064#3" to="19664724#1"/>
    <trip id="veh198" type="veh_passenger" depart="558.65" departLane="best" from="-19654830#3" to="-19650648#4"/>
    <trip id="veh199" type="veh_passenger" depart="561.47" departLane="best" from="-19657531#0" to="901253739#1"/>
    <trip id="veh200" type="veh_passenger" depart="564.30" departLane="best" from="255480207#0" to="232788401"/>
    <trip id="veh201" type="veh_passenger" depart="567.12" departLane="best" from="19662524#10" to="-19667237#2"/>
    <trip id="veh202" type="veh_passenger" depart="569.94" departLane="best" departSpeed="max" from="-19665204#1" to="-160039790#0"/>
    <trip id="veh203" type="veh_passenger" depart="572.76" departLane="best" from="216215521#3" to="160037644#2"/>
    <trip id="veh204" type="veh_passenger" depart="575.58" departLane="best" from="-545699322" to="-19654823#1"/>
    <trip id="veh205" type="veh_passenger" depart="578.40" departLane="best" from="901455885#0" to="19662527#3"/>
    <trip id="veh206" type="veh_passenger" depart="581.23" departLane="best" from="-19665161#7" to="19667237#0"/>
    <trip id="veh207" type="veh_passenger" depart="584.05" departLane="best" departSpeed="max" from="111279950#0" to="-232787114#2"/>
    <trip id="veh208" type="veh_passenger" depart="586.87" departLane="best" from="19660960#0" to="1076398821#5"/>
    <trip id="veh209" type="veh_passenger" depart="589.69" departLane="best" from="19666999#2" to="232958897#0"/>
    <trip id="veh210" type="veh_passenger" depart="592.51" departLane="best" from="19655779#0" to="1083136146"/>
    <trip id="veh211" type="veh_passenger" depart="595.33" departLane="best" departSpeed="max" from="-19662527#5" to="902260322#5"/>
    <trip id="veh212" type="veh_passenger" depart="598.15" departLane="best" from="160035189#2" to="-186412724"/>
    <trip id="veh213" type="veh_passenger" depart="600.98" departLane="best" departSpeed="max" from="-231973475#2" to="757034001#1"/>
    <trip id="veh214" type="veh_passenger" depart="603.80" departLane="best" departSpeed="max" from="-908398806" to="348721056#4"/>
    <trip id="veh215" type="veh_passenger" depart="606.62" departLane="best" from="19661978#1" to="-910457686#4"/>
    <trip id="veh216" type="veh_passenger" depart="609.44" departLane="best" from="19654830#0" to="-902260319#2"/>
    <trip id="veh217" type="veh_passenger" depart="612.26" departLane="best" from="901253741#3" to="-19661979"/>
    <trip id="veh218" type="veh_passenger" depart="615.08" departLane="best" from="19665979#1" to="188259385#1"/>
    <trip id="veh219" type="veh_passenger" depart="617.90" departLane="best" from="442601016#2" to="-19655255#6"/>
    <trip id="veh220" type="veh_passenger" depart="620.73" departLane="best" from="869044127#1" to="232788063#3"/>
    <trip id="veh221" type="veh_passenger" depart="623.55" departLane="best" from="1008686232" to="-296520814#1"/>
    <trip id="veh222" type="veh_passenger" depart="626.37" departLane="best" from="231711248#3" to="19662813#1"/>
    <trip id="veh223" type="veh_passenger" depart="629.19" departLane="best" from="19667583#3" to="19653781#0"/>
    <trip id="veh224" type="veh_passenger" depart="632.01" departLane="best" from="19657146#0" to="524124466#1"/>
    <trip id="veh225" type="veh_passenger" depart="634.83" departLane="best" from="-19654524#0" to="-665218562#0"/>
    <trip id="veh226" type="veh_passenger" depart="637.65" departLane="best" departSpeed="max" from="-232788403" to="-779366706#2"/>
    <trip id="veh227" type="veh_passenger" depart="640.48" departLane="best" from="160039790#1" to="19660983#0"/>
    <trip id="veh228" type="veh_passenger" depart="643.30" departLane="best" from="-19667237#2" to="19666999#5"/>
    <trip id="veh229" type="veh_passenger" depart="646.12" departLane="best" from="-19665790#3" to="-19650648#3"/>
    <trip id="veh230" type="veh_passenger" depart="648.94" departLane="best" from="901451608#0" to="19654837#5"/>
    <trip id="veh231" type="veh_passenger" depart="651.76" departLane="best" from="901455885#1" to="-19666035#1"/>
    <trip id="veh232" type="veh_passenger" depart="654.58" departLane="best" departSpeed="max" from="-901684136" to="901253748#1"/>
    <trip id="veh233" type="veh_passenger" depart="657.41" departLane="best" from="19650648#5" to="19666999#7"/>
    <trip id="veh234" type="veh_passenger" depart="660.23" departLane="best" from="665218562#1" to="232788613#0"/>
    <trip id="veh235" type="veh_passenger" depart="663.05" departLane="best" from="901253741#6" to="-1079982356#0"/>
    <trip id="veh237" type="veh_passenger" depart="668.69" departLane="best" from="613106070#1" to="-902260319#6"/>
    <trip id="veh238" type="veh_passenger" depart="671.51" departLane="best" from="901463066#0" to="-232788064#3"/>
    <trip id="veh239" type="veh_passenger" depart="674.33" departLane="best" from="160039790#7" to="19661305#1"/>
    <trip id="veh240" type="veh_passenger" depart="677.16" departLane="best" from="19666035#1" to="-19666999#4"/>
    <trip id="veh241" type="veh_passenger" depart="679.98" departLane="best" departSpeed="max" from="-902260322#9" to="-160039790#12"/>
    <trip id="veh242" type="veh_passenger" depart="682.80" departLane="best" from="-757034001#10" to="-19666035#1"/>
    <trip id="veh244" type="veh_passenger" depart="688.44" departLane="best" departSpeed="max" from="-910784056#8" to="-19659208"/>
    <trip id="veh245" type="veh_passenger" depart="691.26" departLane="best" departSpeed="max" from="19656546" to="-160039790#1"/>
    <trip id="veh246" type="veh_passenger" depart="694.08" departLane="best" from="-901451604#2" to="19657146#1"/>
    <trip id="veh247" type="veh_passenger" depart="696.91" departLane="best" departSpeed="max" from="-160035932" to="19664273#2"/>
    <trip id="veh248" type="veh_passenger" depart="699.73" departLane="best" departSpeed="max" from="-19659845#1" to="-160035536#1"/>
    <trip id="veh249" type="veh_passenger" depart="702.55" departLane="best" from="186412722#3" to="902260322#2"/>