<?xml version="1.0" encoding="UTF-8"?>

<!-- generated on 2023-10-25 00:32:23.613351 by osmWebWizard.py UNKNOWN
<configuration>
    <net-file value="/home/chandler/Sumo/2023-10-25-00-32-18/osm.net.xml.gz"/>
    <output-trip-file value="/home/chandler/Sumo/2023-10-25-00-32-18/osm.passenger.trips.xml"/>
    <route-file value="/home/chandler/Sumo/2023-10-25-00-32-18/osm.passenger.rou.xml"/>
    <prefix value="veh"/>
    <trip-attributes value="departLane=&quot;best&quot;"/>
    <fringe-start-attributes value="departSpeed=&quot;max&quot;"/>
    <lanes value="True"/>
    <fringe-factor value="5"/>
    <allow-fringe.min-length value="1000.0"/>
    <min-distance value="300.0"/>
    <min-distance.fringe value="10.0"/>
    <vehicle-class value="passenger"/>
    <remove-loops value="True"/>
    <via-edge-types value="highway.motorway,highway.motorway_link,highway.trunk_link,highway.primary_link,highway.secondary_link,highway.tertiary_link"/>
    <validate value="True"/>
    <insertion-density value="12.0"/>
</configuration>
-->

<!-- generated on 2023-10-25 00:32:23 by Eclipse SUMO duarouter Version 1.17.0
<configuration xmlns:xsi="http://www.w3.org/2001/XMLSchema-instance" xsi:noNamespaceSchemaLocation="http://sumo.dlr.de/xsd/duarouterConfiguration.xsd">

    <input>
        <net-file value="/home/chandler/Sumo/2023-10-25-00-32-18/osm.net.xml.gz"/>
        <route-files value="/home/chandler/Sumo/2023-10-25-00-32-18/osm.passenger.trips.xml"/>
    </input>

    <output>
        <output-file value="/home/chandler/Sumo/2023-10-25-00-32-18/osm.passenger.trips.xml.tmp"/>
        <alternatives-output value="NUL"/>
        <write-trips value="true"/>
    </output>

    <processing>
        <remove-loops value="true"/>
    </processing>

    <time>
        <begin value="0.0"/>
        <end value="3600.0"/>
    </time>

    <report>
        <no-warnings value="true"/>
        <ignore-errors value="true"/>
        <no-step-log value="true"/>
    </report>

</configuration>
-->

<routes xmlns:xsi="http://www.w3.org/2001/XMLSchema-instance" xsi:noNamespaceSchemaLocation="http://sumo.dlr.de/xsd/routes_file.xsd">
    <vType id="veh_passenger" vClass="passenger"/>
    <trip id="veh0" type="veh_passenger" depart="0.00" departLane="best" from="-19655987#3" to="233680094#2"/>
    <trip id="veh1" type="veh_passenger" depart="3.40" departLane="best" departSpeed="max" from="-19663797#1" to="-19661346#0"/>
    <trip id="veh2" type="veh_passenger" depart="6.80" departLane="best" from="19660996" to="19659698#2"/>
    <trip id="veh3" type="veh_passenger" depart="10.21" departLane="best" from="258412983" to="-19654736#0"/>
    <trip id="veh4" type="veh_passenger" depart="13.61" departLane="best" from="91275789#2" to="-132931021#0"/>
    <trip id="veh5" type="veh_passenger" depart="17.01" departLane="best" from="19660021#6" to="19654326#2"/>
    <trip id="veh6" type="veh_passenger" depart="20.41" departLane="best" from="1187196966#0" to="19659698#4"/>
    <trip id="veh7" type="veh_passenger" depart="23.81" departLane="best" departSpeed="max" from="19656846" to="19655420#1"/>
    <trip id="veh8" type="veh_passenger" depart="27.21" departLane="best" from="-19660545" to="19655514#6"/>
    <trip id="veh9" type="veh_passenger" depart="30.62" departLane="best" from="19665714#3" to="-111292606#1"/>
    <trip id="veh10" type="veh_passenger" depart="34.02" departLane="best" from="19665516" to="19660758"/>
    <trip id="veh11" type="veh_passenger" depart="37.42" departLane="best" departSpeed="max" from="-19666441#1" to="-19657603#4"/>
    <trip id="veh12" type="veh_passenger" depart="40.82" departLane="best" departSpeed="max" from="465662397#0" to="-19667181#1"/>
    <trip id="veh13" type="veh_passenger" depart="44.22" departLane="best" from="-19654736#0" to="-19655044#1"/>
    <trip id="veh14" type="veh_passenger" depart="47.63" departLane="best" from="-19666901#3" to="19655987#12"/>
    <trip id="veh15" type="veh_passenger" depart="51.03" departLane="best" from="-19665714#0" to="19662805"/>
    <trip id="veh16" type="veh_passenger" depart="54.43" departLane="best" departSpeed="max" from="19654191" to="-465662397#1"/>
    <trip id="veh17" type="veh_passenger" depart="57.83" departLane="best" from="1164665931#1" to="19655509#0"/>
    <trip id="veh18" type="veh_passenger" depart="61.23" departLane="best" departSpeed="max" from="19666574#0" to="19655987#5"/>
    <trip id="veh20" type="veh_passenger" depart="68.04" departLane="best" departSpeed="max" from="19658378" to="-132931120#2"/>
    <trip id="veh21" type="veh_passenger" depart="71.44" departLane="best" departSpeed="max" from="-19661234" to="-19666175#1"/>
    <trip id="veh22" type="veh_passenger" depart="74.84" departLane="best" from="-19654326#11" to="-19661890"/>
    <trip id="veh23" type="veh_passenger" depart="78.24" departLane="best" departSpeed="max" from="-19655049#2" to="-19665364#3"/>
    <trip id="veh24" type="veh_passenger" depart="81.64" departLane="best" from="-19655987#16" to="-465662397#0"/>
    <trip id="veh25" type="veh_passenger" depart="85.05" departLane="best" departSpeed="max" from="-19666937" to="-19660545"/>
    <trip id="veh26" type="veh_passenger" depart="88.45" departLane="best" departSpeed="max" from="-19663704#1" to="258412985#4"/>
    <trip id="veh27" type="veh_passenger" depart="91.85" departLane="best" departSpeed="max" from="19656846" to="19655987#17"/>
    <trip id="veh28" type="veh_passenger" depart="95.25" departLane="best" from="19657038#2" to="19662805"/>
    <trip id="veh29" type="veh_passenger" depart="98.65" departLane="best" from="-19657029" to="-91279238#4"/>
    <trip id="veh30" type="veh_passenger" depart="102.06" departLane="best" from="-91279247#3" to="19657029"/>
    <trip id="veh31" type="veh_passenger" depart="105.46" departLane="best" from="19654326#9" to="19659698#5"/>
    <trip id="veh32" type="veh_passenger" depart="108.86" departLane="best" from="-19666901#0" to="-19665211#2"/>
    <trip id="veh33" type="veh_passenger" depart="112.26" departLane="best" departSpeed="max" from="-19661234" to="-132931021#0"/>
    <trip id="veh34" type="veh_passenger" depart="115.66" departLane="best" from="19665364#4" to="19665356#4"/>
    <trip id="veh35" type="veh_passenger" depart="119.07" departLane="best" from="19660021#0" to="444951917#3"/>
    <trip id="veh36" type="veh_passenger" depart="122.47" departLane="best" from="-233680094#1" to="-19666574#1"/>
    <trip id="veh37" type="veh_passenger" depart="125.87" departLane="best" from="19657029" to="1076025512"/>
    <trip id="veh38" type="veh_passenger" depart="129.27" departLane="best" from="444951917#0" to="19650582#1"/>
    <trip id="veh39" type="veh_passenger" depart="132.67" departLane="best" departSpeed="max" from="-19663704#1" to="-19665063#0"/>
    <trip id="veh40" type="veh_passenger" depart="136.07" departLane="best" from="19654544#3" to="-19665356#1"/>
    <trip id="veh41" type="veh_passenger" depart="139.48" departLane="best" from="19655514#4" to="258412982#1"/>
    <trip id="veh42" type="veh_passenger" depart="142.88" departLane="best" from="-233680095#2" to="-19661346#0"/>
    <trip id="veh43" type="veh_passenger" depart="146.28" departLane="best" from="91279276#3" to="19654326#5"/>
    <trip id="veh44" type="veh_passenger" depart="149.68" departLane="best" from="-19654326#8" to="-132931120#3"/>
    <trip id="veh45" type="veh_passenger" depart="153.08" departLane="best" departSpeed="max" from="-19655094#2" to="19656251"/>
    <trip id="veh46" type="veh_passenger" depart="156.49" departLane="best" departSpeed="max" from="19665364#0" to="1164665937#1"/>
    <trip id="veh47" type="veh_passenger" depart="159.89" departLane="best" departSpeed="max" from="-19650702" to="91279247#1"/>
    <trip id="veh48" type="veh_passenger" depart="163.29" departLane="best" from="91279276#2" to="19655049#2"/>
    <trip id="veh49" type="veh_passenger" depart="166.69" departLane="best" departSpeed="max" from="51109350" to="-233680092#1"/>
    <trip id="veh50" type="veh_passenger" depart="170.09" departLane="best" from="111292606#0" to="19661649#1"/>
    <trip id="veh51" type="veh_passenger" depart="173.49" departLane="best" from="19657603#7" to="19655094#2"/>
    <trip id="veh52" type="veh_passenger" depart="176.90" departLane="best" departSpeed="max" from="-19663704#1" to="19657032#0"/>
    <trip id="veh53" type="veh_passenger" depart="180.30" departLane="best" departSpeed="max" from="-19655094#2" to="-132931021#3"/>
    <trip id="veh54" type="veh_passenger" depart="183.70" departLane="best" from="-111292606#5" to="444951917#7"/>
    <trip id="veh55" type="veh_passenger" depart="187.10" departLane="best" from="-233680094#1" to="-19665356#1"/>
    <trip id="veh56" type="veh_passenger" depart="190.50" departLane="best" from="19650582#1" to="-19658084"/>
    <trip id="veh57" type="veh_passenger" depart="193.91" departLane="best" from="258412985#5" to="233680094#1"/>
    <trip id="veh58" type="veh_passenger" depart="197.31" departLane="best" from="19655514#3" to="-19657603#2"/>
    <trip id="veh59" type="veh_passenger" depart="200.71" departLane="best" from="-19663704#0" to="19655094#2"/>
    <trip id="veh60" type="veh_passenger" depart="204.11" departLane="best" from="-19665149#2" to="19655049#2"/>
    <trip id="veh61" type="veh_passenger" depart="207.51" departLane="best" from="-1098293358#0" to="19666901#2"/>
    <trip id="veh62" type="veh_passenger" depart="210.92" departLane="best" from="111292606#7" to="258413000"/>
    <trip id="veh63" type="veh_passenger" depart="214.32" departLane="best" from="-233680095#0" to="19666901#6"/>
    <trip id="veh64" type="veh_passenger" depart="217.72" departLane="best" from="-19665356#2" to="-19654175"/>
    <trip id="veh65" type="veh_passenger" depart="221.12" departLane="best" from="-1164665937#0" to="444951917#5"/>
    <trip id="veh66" type="veh_passenger" depart="224.52" departLane="best" from="-19654326#4" to="19650702"/>
    <trip id="veh67" type="veh_passenger" depart="227.92" departLane="best" from="-19654181#0" to="19665063#0"/>
    <trip id="veh68" type="veh_passenger" depart="231.33" departLane="best" from="-19664922#0" to="-19656846"/>
    <trip id="veh69" type="veh_passenger" depart="234.73" departLane="best" departSpeed="max" from="132931021#0" to="19655420#1"/>
    <trip id="veh70" type="veh_passenger" depart="238.13" departLane="best" departSpeed="max" from="-19663704#1" to="233680095#0"/>
    <trip id="veh71" type="veh_passenger" depart="241.53" departLane="best" from="-91279238#0" to="19660758"/>
    <trip id="veh72" type="veh_passenger" depart="244.93" departLane="best" departSpeed="max" from="19654191" to="19662805"/>
    <trip id="veh73" type="veh_passenger" depart="248.34" departLane="best" from="-19659698#2" to="-19666574#0"/>
    <trip id="veh74" type="veh_passenger" depart="251.74" departLane="best" from="91279276#1" to="19657038#4"/>
    <trip id="veh75" type="veh_passenger" depart="255.14" departLane="best" from="-91279276#0" to="19654544#0"/>
    <trip id="veh76" type="veh_passenger" depart="258.54" departLane="best" departSpeed="max" from="-19655420#1" to="19661649#0"/>
    <trip id="veh77" type="veh_passenger" depart="261.94" departLane="best" departSpeed="max" from="-19666441#1" to="19655514#6"/>
    <trip id="veh78" type="veh_passenger" depart="265.35" departLane="best" departSpeed="max" from="-19661234" to="-19661346#0"/>
    <trip id="veh79" type="veh_passenger" depart="268.75" departLane="best" from="-19654181#1" to="19656406"/>
    <trip id="veh80" type="veh_passenger" depart="272.15" departLane="best" departSpeed="max" from="-19661234" to="258412983"/>
    <trip id="veh81" type="veh_passenger" depart="275.55" departLane="best" from="19667181#4" to="19654326#1"/>
    <trip id="veh82" type="veh_passenger" depart="278.95" departLane="best" departSpeed="max" from="-19661344#1" to="-19658711"/>
    <trip id="veh83" type="veh_passenger" depart="282.35" departLane="best" from="19660021#2" to="-19657029"/>
    <trip id="veh84" type="veh_passenger" depart="285.76" departLane="best" from="444951918#0" to="19655509#5"/>
    <trip id="veh85" type="veh_passenger" depart="289.16" departLane="best" from="-1187196966#0" to="-19665364#2"/>
    <trip id="veh86" type="veh_passenger" depart="292.56" departLane="best" from="19665714#0" to="19659030"/>
    <trip id="veh87" type="veh_passenger" depart="295.96" departLane="best" from="-19655049#0" to="132930964"/>
    <trip id="veh88" type="veh_passenger" depart="299.36" departLane="best" from="-91279238#0" to="19650582#4"/>
    <trip id="veh89" type="veh_passenger" depart="302.77" departLane="best" from="-19660021#5" to="19659329#2"/>
    <trip id="veh90" type="veh_passenger" depart="306.17" departLane="best" from="91279238#4" to="19655049#0"/>
    <trip id="veh91" type="veh_passenger" depart="309.57" departLane="best" departSpeed="max" from="-233680095#3" to="-19667181#4"/>
    <trip id="veh92" type="veh_passenger" depart="312.97" departLane="best" from="465662397#2" to="-19665063#2"/>
    <trip id="veh93" type="veh_passenger" depart="316.37" departLane="best" from="19658060#1" to="132931121"/>
    <trip id="veh94" type="veh_passenger" depart="319.77" departLane="best" from="91275789#2" to="-19665364#3"/>
    <trip id="veh95" type="veh_passenger" depart="323.18" departLane="best" from="-19661649#1" to="258412985#4-AddedOffRampEdge"/>
    <trip id="veh96" type="veh_passenger" depart="326.58" departLane="best" from="-91279276#4" to="-233680092#1"/>
    <trip id="veh97" type="veh_passenger" depart="329.98" departLane="best" from="-19654326#4" to="-19654172"/>
    <trip id="veh98" type="veh_passenger" depart="333.38" departLane="best" from="91279276#4" to="19666901#6"/>
    <trip id="veh99" type="veh_passenger" depart="336.78" departLane="best" departSpeed="max" from="51109350" to="258412985#5"/>
    <trip id="veh100" type="veh_passenger" depart="340.19" departLane="best" from="-19666901#4" to="-19658000#0"/>
    <trip id="veh101" type="veh_passenger" depart="343.59" departLane="best" from="132931021#4" to="-19660993#1"/>
    <trip id="veh102" type="veh_passenger" depart="346.99" departLane="best" departSpeed="max" from="-233680095#3" to="-19654175"/>
    <trip id="veh103" type="veh_passenger" depart="350.39" departLane="best" departSpeed="max" from="-233680091" to="-91279238#4"/>
    <trip id="veh104" type="veh_passenger" depart="353.79" departLane="best" departSpeed="max" from="-19663704#1" to="-19665364#2"/>
    <trip id="veh105" type="veh_passenger" depart="357.20" departLane="best" from="111292606#6" to="1187196966#0"/>
    <trip id="veh106" type="veh_passenger" depart="360.60" departLane="best" departSpeed="max" from="465662397#0" to="91279276#1"/>
    <trip id="veh107" type="veh_passenger" depart="364.00" departLane="best" from="-19654326#8" to="19661346#1"/>
    <trip id="veh108" type="veh_passenger" depart="367.40" departLane="best" from="-19656405#1" to="-19666193#0"/>
    <trip id="veh110" type="veh_passenger" depart="374.20" departLane="best" from="19654326#1" to="19663797#1"/>
    <trip id="veh111" type="veh_passenger" depart="377.61" departLane="best" departSpeed="max" from="-19650696" to="19655509#2"/>
    <trip id="veh112" type="veh_passenger" depart="381.01" departLane="best" from="19650582#2" to="233680091"/>
    <trip id="veh113" type="veh_passenger" depart="384.41" departLane="best" departSpeed="max" from="-19656451" to="444951918#2"/>
    <trip id="veh114" type="veh_passenger" depart="387.81" departLane="best" from="-19654326#11" to="-19658378"/>
    <trip id="veh115" type="veh_passenger" depart="391.21" departLane="best" departSpeed="max" from="19655514#0" to="19659698#1"/>
    <trip id="veh116" type="veh_passenger" depart="394.62" departLane="best" departSpeed="max" from="-19661344#1" to="19655987#7"/>
    <trip id="veh119" type="veh_passenger" depart="404.82" departLane="best" from="-91275789#0" to="19655514#4"/>
    <trip id="veh120" type="veh_passenger" depart="408.22" departLane="best" departSpeed="max" from="19654175" to="444951917#0"/>
    <trip id="veh121" type="veh_passenger" depart="411.63" departLane="best" departSpeed="max" from="-19659698#5" to="19661346#1"/>
    <trip id="veh122" type="veh_passenger" depart="415.03" departLane="best" departSpeed="max" from="-19661344#1" to="1076025512"/>
    <trip id="veh123" type="veh_passenger" depart="418.43" departLane="best" departSpeed="max" from="19657603#0" to="-19666193#0"/>
    <trip id="veh124" type="veh_passenger" depart="421.83" departLane="best" from="-19665364#4" to="19664922#0"/>
    <trip id="veh125" type="veh_passenger" depart="425.23" departLane="best" from="-19654181#2" to="19650582#1"/>
    <trip id="veh126" type="veh_passenger" depart="428.63" departLane="best" departSpeed="max" from="-19663704#1" to="258413000"/>
    <trip id="veh127" type="veh_passenger" depart="432.04" departLane="best" from="233680095#2" to="233680095#3"/>
    <trip id="veh128" type="veh_passenger" depart="435.44" departLane="best" departSpeed="max" from="-19666937" to="19657603#6"/>
    <trip id="veh129" type="veh_passenger" depart="438.84" departLane="best" departSpeed="max" from="19666574#0" to="19661234"/>
    <trip id="veh130" type="veh_passenger" depart="442.24" departLane="best" from="19655509#2" to="91279247#1"/>
    <trip id="veh131" type="veh_passenger" depart="445.64" departLane="best" departSpeed="max" from="19656846" to="-111292606#3"/>
    <trip id="veh132" type="veh_passenger" depart="449.05" departLane="best" from="19657038#2" to="444951917#2"/>
    <trip id="veh133" type="veh_passenger" depart="452.45" departLane="best" departSpeed="max" from="-19655987#17" to="-19655987#2"/>
    <trip id="veh134" type="veh_passenger" depart="455.85" departLane="best" from="-19655094#0" to="19655509#0"/>
    <trip id="veh135" type="veh_passenger" depart="459.25" departLane="best" departSpeed="max" from="-19663797#1" to="-19655987#13"/>
    <trip id="veh136" type="veh_passenger" depart="462.65" departLane="best" from="-19659698#1" to="-19660021#2"/>
    <trip id="veh137" type="veh_passenger" depart="466.05" departLane="best" from="-19655987#15" to="-19665356#1"/>
    <trip id="veh138" type="veh_passenger" depart="469.46" departLane="best" from="132931034#1" to="258412983"/>
    <trip id="veh139" type="veh_passenger" depart="472.86" departLane="best" from="-19666901#2" to="-19655044#0"/>
    <trip id="veh140" type="veh_passenger" depart="476.26" departLane="best" from="-91279238#0" to="-19665364#2"/>
    <trip id="veh141" type="veh_passenger" depart="479.66" departLane="best" departSpeed="max" from="-1098293358#1" to="19665149#2"/>
    <trip id="veh142" type="veh_passenger" depart="483.06" departLane="best" from="-19655987#2" to="-19665356#0"/>
    <trip id="veh143" type="veh_passenger" depart="486.47" departLane="best" departSpeed="max" from="19661346#0" to="19655509#0"/>
    <trip id="veh144" type="veh_passenger" depart="489.87" departLane="best" from="91279238#3" to="-111292606#5"/>
    <trip id="veh145" type="veh_passenger" depart="493.27" departLane="best" from="-19654181#4" to="258412980#0"/>
    <trip id="veh146" type="veh_passenger" depart="496.67" departLane="best" from="444951917#2" to="19655420#1"/>
    <trip id="veh147" type="veh_passenger" depart="500.07" departLane="best" departSpeed="max" from="19666574#0" to="19655514#3"/>
    <trip id="veh148" type="veh_passenger" depart="503.48" departLane="best" departSpeed="max" from="-19656251" to="-19656846"/>
    <trip id="veh149" type="veh_passenger" depart="506.88" departLane="best" from="-19665356#2" to="258412982#1"/>
    <trip id="veh150" type="veh_passenger" depart="510.28" departLane="best" departSpeed="max" from="19665364#0" to="-233680092#1"/>
    <trip id="veh151" type="veh_passenger" depart="513.68" departLane="best" from="258412985#1" to="-19660545"/>
    <trip id="veh152" type="veh_passenger" depart="517.08" departLane="best" from="19661649#1" to="-19655349"/>
    <trip id="veh153" type="veh_passenger" depart="520.48" departLane="best" departSpeed="max" from="-233680095#3" to="19655987#8"/>
    <trip id="veh154" type="veh_passenger" depart="523.89" departLane="best" from="-19656405#1" to="258413000"/>
    <trip id="veh155" type="veh_passenger" depart="527.29" departLane="best" from="233680092#0" to="91275789#0"/>
    <trip id="veh156" type="veh_passenger" depart="530.69" departLane="best" from="19666175#1" to="233680095#3"/>
    <trip id="veh157" type="veh_passenger" depart="534.09" departLane="best" from="233680094#2" to="19663704#1"/>
    <trip id="veh158" type="veh_passenger" depart="537.49" departLane="best" from="19666193#1" to="258413000"/>
    <trip id="veh159" type="veh_passenger" depart="540.90" departLane="best" from="19665364#4" to="-233680093#1"/>
    <trip id="veh160" type="veh_passenger" depart="544.30" departLane="best" from="19665356#2" to="19655987#12"/>
    <trip id="veh161" type="veh_passenger" depart="547.70" departLane="best" from="-19660758" to="-19666574#1"/>
    <trip id="veh162" type="veh_passenger" depart="551.10" departLane="best" departSpeed="max" from="1164665931#0" to="-19666193#4"/>
    <trip id="veh163" type="veh_passenger" depart="554.50" departLane="best" departSpeed="max" from="19665364#0" to="-19661890"/>
    <trip id="veh164" type="veh_passenger" depart="557.90" departLane="best" from="1164665935#0" to="-19659329#1"/>
    <trip id="veh165" type="veh_passenger" depart="561.31" departLane="best" from="-19666176#0" to="-233680093#1"/>
    <trip id="veh166" type="veh_passenger" depart="564.71" departLane="best" departSpeed="max" from="51109350" to="-19665364#4"/>
    <trip id="veh167" type="veh_passenger" depart="568.11" departLane="best" from="-19655987#7" to="1098293358#1"/>
    <trip id="veh168" type="veh_passenger" depart="571.51" departLane="best" from="91279238#1" to="19655094#2"/>
    <trip id="veh169" type="veh_passenger" depart="574.91" departLane="best" from="444951918#1" to="-19655987#2"/>
    <trip id="veh170" type="veh_passenger" depart="578.32" departLane="best" departSpeed="max" from="51109350" to="-19658084"/>
    <trip id="veh171" type="veh_passenger" depart="581.72" departLane="best" departSpeed="max" from="51109350" to="-19665356#3"/>
    <trip id="veh172" type="veh_passenger" depart="585.12" departLane="best" from="-19655094#1" to="-132931021#2"/>
    <trip id="veh173" type="veh_passenger" depart="588.52" departLane="best" from="19660021#5" to="-19666574#0"/>
    <trip id="veh174" type="veh_passenger" depart="591.92" departLane="best" departSpeed="max" from="19655514#0" to="-19654326#6"/>
    <trip id="veh175" type="veh_passenger" depart="595.33" departLane="best" departSpeed="max" from="-233680091" to="19655509#5"/>
    <trip id="veh176" type="veh_passenger" depart="598.73" departLane="best" departSpeed="max" from="-19662805" to="19661234"/>
    <trip id="veh177" type="veh_passenger" depart="602.13" departLane="best" departSpeed="max" from="-1098293358#1" to="258412985#5"/>
    <trip id="veh178" type="veh_passenger" depart="605.53" departLane="best" departSpeed="max" from="19654191" to="19661649#0"/>
    <trip id="veh179" type="veh_passenger" depart="608.93" departLane="best" departSpeed="max" from="19661346#0" to="19659030"/>
    <trip id="veh180" type="veh_passenger" depart="612.33" departLane="best" departSpeed="max" from="-19666901#6" to="-19654326#0"/>
    <trip id="veh181" type="veh_passenger" depart="615.74" departLane="best" from="19657038#3" to="-19667181#0"/>
    <trip id="veh182" type="veh_passenger" depart="619.14" departLane="best" from="19665364#3" to="233680089#0"/>
    <trip id="veh183" type="veh_passenger" depart="622.54" departLane="best" from="-19659698#3" to="-19666193#1"/>
    <trip id="veh184" type="veh_passenger" depart="625.94" departLane="best" departSpeed="max" from="-233680095#3" to="-19666193#0"/>
    <trip id="veh185" type="veh_passenger" depart="629.34" departLane="best" from="-19655987#12" to="-19666175#0"/>
    <trip id="veh186" type="veh_passenger" depart="632.75" departLane="best" from="258412985#3" to="19655987#2"/>
    <trip id="veh187" type="veh_passenger" depart="636.15" departLane="best" from="-19665211#0" to="19655420#1"/>
    <trip id="veh188" type="veh_passenger" depart="639.55" departLane="best" from="-1098293358#0" to="-19665714#3"/>
    <trip id="veh190" type="veh_passenger" depart="646.35" departLane="best" from="19657029" to="19650582#3"/>
    <trip id="veh191" type="veh_passenger" depart="649.76" departLane="best" from="-91279276#3" to="-19660993#1"/>
    <trip id="veh192" type="veh_passenger" depart="653.16" departLane="best" from="1187196966#1" to="258412982#1"/>
    <trip id="veh193" type="veh_passenger" depart="656.56" departLane="best" departSpeed="max" from="19665364#0" to="-19658000#1"/>
    <trip id="veh194" type="veh_passenger" depart="659.96" departLane="best" from="-19655987#13" to="-19667181#0"/>
    <trip id="veh195" type="veh_passenger" depart="663.36" departLane="best" departSpeed="max" from="19666193#0" to="19664922#0"/>
    <trip id="veh196" type="veh_passenger" depart="666.76" departLane="best" departSpeed="max" from="19657603#0" to="-19661649#0"/>
    <trip id="veh197" type="veh_passenger" depart="670.17" departLane="best" from="-19659698#1" to="-1164665937#0"/>
    <trip id="veh198" type="veh_passenger" depart="673.57" departLane="best" departSpeed="max" from="-19661346#1" to="19650582#7"/>
    <trip id="veh199" type="veh_passenger" depart="676.97" departLane="best" from="-19666901#5" to="19654326#10"/>
    <trip id="veh200" type="veh_passenger" depart="680.37" departLane="best" departSpeed="max" from="-258413000" to="19656405#1"/>
    <trip id="veh201" type="veh_passenger" depart="683.77" departLane="best" from="-19659030" to="-19660545"/>
    <trip id="veh202" type="veh_passenger" depart="687.18" departLane="best" from="19650575" to="19664922#0"/>
    <trip id="veh203" type="veh_passenger" depart="690.58" departLane="best" from="-19657032#0" to="-111292606#1"/>
    <trip id="veh204" type="veh_passenger" depart="693.98" departLane="best" departSpeed="max" from="19661890" to="-19665149#2"/>
    <trip id="veh205" type="veh_passenger" depart="697.38" departLane="best" from="-19655094#0" to="1187196966#1"/>
    <trip id="veh206" type="veh_passenger" depart="700.78" departLane="best" from="19657603#1" to="444951918#1"/>
    <trip id="veh207" type="veh_passenger" depart="704.18" departLane="best" from="19650582#9" to="-19654172"/>
    <trip id="veh208" type="veh_passenger" depart="707.59" departLane="best" from="-19661649#1" to="233680089#0"/>
    <trip id="veh209" type="veh_passenger" depart="710.99" departLane="best" from="-111292606#7" to="-19666193#1"/>
    <trip id="veh210" type="veh_passenger" depart="714.39" departLane="best" departSpeed="max" from="19657603#0" to="91279247#1"/>
    <trip id="veh211" type="veh_passenger" depart="717.79" departLane="best" departSpeed="max" from="19655514#0" to="444951917#6"/>
    <trip id="veh212" type="veh_passenger" depart="721.19" departLane="best" from="258412983" to="19655987#17"/>
    <trip id="veh213" type="veh_passenger" depart="724.60" departLane="best" from="-19659698#3" to="19654326#13"/>
    <trip id="veh214" type="veh_passenger" depart="728.00" departLane="best" departSpeed="max" from="19666574#0" to="19655420#1"/>
    <trip id="veh215" type="veh_passenger" depart="731.40" departLane="best" from="258412985#1" to="19663797#1"/>
    <trip id="veh216" type="veh_passenger" depart="734.80" departLane="best" departSpeed="max" from="132931021#0" to="-19665211#1"/>
    <trip id="veh217" type="veh_passenger" depart="738.20" departLane="best" departSpeed="max" from="-19661346#1" to="19656451"/>
    <trip id="veh218" type="veh_passenger" depart="741.61" departLane="best" from="-19664922#0" to="-19654736#0"/>
    <trip id="veh219" type="veh_passenger" depart="745.01" departLane="best" from="-19655987#1" to="-19665364#0"/>
    <trip id="veh220" type="veh_passenger" depart="748.41" departLane="best" departSpeed="max" from="-19663797#1" to="19666857#2"/>
    <trip id="veh221" type="veh_passenger" depart="751.81" departLane="best" departSpeed="max" from="19654191" to="19657038#0"/>
    <trip id="veh222" type="veh_passenger" depart="755.21" departLane="best" departSpeed="max" from="-19661234" to="-19660021#5"/>
    <trip id="veh223" type="veh_passenger" depart="758.61" departLane="best" departSpeed="max" from="19658378" to="19654181#1"/>
    <trip id="veh224" type="veh_passenger" depart="762.02" departLane="best" from="-258412980#0" to="19655094#2"/>
    <trip id="veh225" type="veh_passenger" depart="765.42" departLane="best" departSpeed="max" from="-258413000" to="-19660021#5"/>
    <trip id="veh226" type="veh_passenger" depart="768.82" departLane="best" from="-91275789#0" to="258412983"/>
    <trip id="veh227" type="veh_passenger" depart="772.22" departLane="best" from="19655509#1" to="-19660021#6"/>
    <trip id="veh228" type="veh_passenger" depart="775.62" departLane="best" departSpeed="max" from="19667181#0" to="19665149#0"/>
    <trip id="veh229" type="veh_passenger" depart="779.03" departLane="best" departSpeed="max" from="-233680091" to="111292606#1"/>
    <trip id="veh230" type="veh_passenger" depart="782.43" departLane="best" from="-19666857#3" to="19664922#2"/>
    <trip id="veh231" type="veh_passenger" depart="785.83" departLane="best" departSpeed="max" from="19667181#0" to="444951917#7"/>
    <trip id="veh232" type="veh_passenger" depart="789.23" departLane="best" from="-91275789#0" to="19663797#1"/>
    <trip id="veh233" type="veh_passenger" depart="792.63" departLane="best" from="-19654326#13" to="19655987#12"/>
    <trip id="veh234" type="veh_passenger" depart="796.04" departLane="best" from="-19660545" to="-19661346#0"/>
    <trip id="veh235" type="veh_passenger" depart="799.44" departLane="best" from="-91279251#1" to="1187196966#1"/>