<?xml version="1.0" encoding="UTF-8"?>

<additional xmlns:xsi="http://www.w3.org/2001/XMLSchema-instance" xsi:noNamespaceSchemaLocation="http://sumo.dlr.de/xsd/additional_file.xsd">
    <location netOffset="-372129.36,-4015583.88" convBoundary="-5255.73,-10648.72,16538.67,18242.59" origBoundary="-82.482400,36.181298,-82.241915,36.442840" projParameter="+proj=utm +zone=17 +ellps=WGS84 +datum=WGS84 +units=m +no_defs"/>

    <poly id="1001350337" type="building.commercial" color="255,230,230" fill="1" layer="-1.00" shape="6573.676382,4358.767441 6559.540370,4351.486803 6574.686040,4322.416741 6589.102706,4329.859912 6573.676382,4358.767441"/>
    <poly id="1001350338" type="amenity.studio" color="237,199,199" fill="1" layer="-1.00" shape="6580.278328,4362.147996 6573.676382,4358.767441 6589.102706,4329.859912 6595.650803,4333.241231 6580.278328,4362.147996"/>
    <poly id="1001350338#1" type="building.commercial" color="255,230,230" fill="1" layer="-1.00" shape="6580.278328,4362.147996 6573.676382,4358.767441 6589.102706,4329.859912 6595.650803,4333.241231 6580.278328,4362.147996"/>
    <poly id="1007780659" type="landuse.commercial" color="209,209,204" fill="1" layer="-3.00" shape="6105.835935,3641.955552 6207.736276,3696.879736 6228.909405,3708.976431 6241.250323,3715.582723 6255.180421,3724.097333 6335.881775,3779.308748 6415.416034,3833.971347 6497.493443,3890.130223 6520.283792,3906.853857 6559.774087,3852.091277 6583.182747,3815.361175 6624.381673,3841.114627 6635.039363,3824.312042 6679.472443,3858.552753 6696.859736,3836.230818 6759.897411,3880.075918 6708.616508,3954.185525 6696.562043,3969.986762 6659.407788,3943.810399 6592.047121,4032.147276 6711.487342,4116.822286 6769.844800,4155.517987 6772.775631,4158.350751 6771.499717,4161.508467 6780.259557,4167.666149 6782.596826,4165.281388 6898.759631,4222.510828 6873.209346,4376.190397 6949.491834,4377.235777 6964.997125,4378.417840 6983.820685,4381.894801 7002.187890,4386.776141 7029.550119,4396.680462 7055.989120,4407.995698 7085.360635,4427.447320 7113.851431,4451.371524 7135.349738,4476.103135 7225.896427,4617.849419 7230.730974,4621.365962 7234.146334,4622.905106 7247.301111,4622.322907 7261.150055,4614.186406 7366.594129,4549.957209 7433.667246,4506.033007 7534.331682,4438.177591 7585.346753,4404.240887 7664.126327,4515.654086 7700.910498,4572.584169 7709.516106,4591.681759 7721.523398,4632.101426 7726.605496,4654.820413 7728.842946,4661.435410 7734.407471,4667.760276 7688.640469,4712.973787 7683.334854,4718.217549 7664.260531,4738.053377 7655.175353,4747.865194 7599.367942,4804.513064 7549.262361,4855.312845 7534.876025,4868.715422 7532.632407,4872.674189 7482.630548,4927.012292 7474.085931,4933.044484 7355.759696,4861.292154 7326.422977,4842.904335 7291.844062,4887.321206 7266.921470,4893.259345 7223.510065,4871.261785 7168.058529,4827.330344 7143.793773,4806.331823 7127.336254,4796.663850 7115.711098,4789.070050 7104.748610,4731.006423 7103.984369,4715.439500 7093.280156,4715.322124 7052.444184,4699.769098 7026.492170,4689.190497 7002.716749,4676.950685 6991.978194,4674.370791 6980.999344,4674.523658 6958.532563,4657.616881 6928.909957,4639.445138 6877.447824,4610.105454 6844.252006,4591.983785 6833.807762,4622.119532 6820.728989,4684.822969 6802.239258,4740.656338 6792.085681,4751.049847 6780.884944,4757.818769 6768.268062,4758.327610 6730.200407,4744.301883 6688.234365,4712.800403 6653.048998,4643.503136 6634.859453,4650.036970 6595.780852,4635.038455 6531.702341,4590.288327 6528.371968,4589.058930 6509.025214,4562.911789 6508.622092,4559.766401 6493.328041,4571.752155 6477.129438,4586.468897 6505.184461,4636.293334 6518.804505,4661.932464 6541.836372,4701.220255 6584.465967,4760.893462 6642.405889,4843.885863 6691.557060,4916.105859 6716.679262,4960.524137 6668.293445,5004.825681 6596.829459,5068.100852 6574.852996,5042.578378 6562.568052,5029.546806 6433.457053,4887.569791 6414.183196,4869.177362 6390.242113,4847.699256 6307.255086,4918.372127 6277.387142,4882.087605 6192.936284,4948.166533 6131.337983,4876.678494 6108.874450,4849.211211 6046.623147,4775.436185 6009.872327,4731.859724 6009.809265,4727.367061 6057.993985,4679.081450 6078.805702,4655.323178 6092.414632,4637.191385 6132.780296,4574.858472 6064.229612,4530.274247 6012.666551,4510.649242 5979.266310,4501.798135 5853.313239,4498.874034 5848.810389,4497.284134 5813.961938,4402.677138 5795.431745,4400.308087 5784.147367,4399.834323 5758.524140,4398.774464 5674.107688,4395.291023 5625.597106,4391.069801 5622.416482,4390.925964 5609.276811,4390.056930 5606.006493,4433.917903 5595.859858,4436.446256 5544.278109,4430.915133 5422.312449,4423.691594 5413.622966,4423.215002 5410.717337,4471.852980 5406.851161,4473.394268 5316.675106,4469.596134 5282.276835,4472.167637 5245.344403,4444.074611 5218.600964,4415.837797 5201.900732,4399.375424 5186.305897,4396.966196 5181.998394,4389.515600 5182.105011,4384.987245 5183.101125,4381.134225 5171.985284,4376.708976 5163.099658,4371.253652 5147.891785,4358.109947 5144.049205,4354.968836 5139.266322,4342.476655 5095.813841,4328.345416 5080.936356,4323.973468 5070.878551,4320.720570 5037.926389,4313.209200 4989.097770,4300.541440 4945.274589,4288.801655 4943.591957,4282.845150 4946.906936,4276.618179 4994.621500,4224.505373 4998.205184,4222.668330 5004.417115,4223.179572 5116.987497,4254.085331 5201.408338,4276.813555 5205.635011,4278.540173 5207.476147,4281.110443 5208.145176,4285.883029 5231.191515,4287.554628 5236.389965,4286.882065 5315.561119,4306.700909 5328.620474,4309.501203 5347.290328,4312.832583 5366.335296,4314.749619 5418.431306,4317.210189 5626.204697,4326.442847 5625.839646,4264.159583 5728.948277,4267.368554 5729.839437,4330.720625 5808.822155,4332.150742 5809.352970,4319.450391 5806.947686,4220.526280 5807.792551,4159.901435 5886.453242,4162.590600 5883.946557,4225.124942 5858.986486,4223.367549 5857.364948,4273.473970 6045.391870,4282.616936 6119.639940,4287.045447 6122.039049,4232.090739 6122.903546,4218.819896 6112.450607,4218.101041 6116.374822,4170.092715 6175.267408,4174.393110 6180.223384,4029.542917 6178.531734,4027.369782 6121.170719,4013.894346 6101.642933,4010.872891 6081.427831,4009.425537 6094.010498,3982.065929 6060.595694,3965.270506 6063.413689,3955.555996 6066.444045,3945.616605 6044.504854,3933.298063 6041.512775,3931.243053 6052.197511,3909.413214 6052.513186,3901.830790 6048.205072,3895.578076 6040.314587,3890.640470 6005.521516,3873.565009 5977.068598,3861.016278 5965.339914,3851.328405 5949.023127,3837.200322 5925.286257,3818.394440 5882.743837,3788.580066 5873.853813,3780.261522 5879.304023,3761.689314 5893.157658,3729.573925 5882.346377,3723.845340 5777.072349,3665.421872 5762.714389,3656.536786 5747.398431,3645.301922 5738.552765,3638.880159 5728.623372,3633.938208 5716.863613,3628.467254 5706.822714,3623.260612 5677.443202,3603.025797 5661.426738,3593.076879 5647.802086,3585.268983 5636.412966,3579.981536 5620.609232,3572.392969 5604.964420,3563.337628 5578.288329,3548.268715 5532.454179,3521.464731 5493.808730,3499.474852 5475.969273,3489.551947 5465.473901,3483.342315 5449.805776,3472.656578 5436.335974,3462.483543 5426.756325,3456.261047 5412.415479,3448.641125 5405.234223,3444.381970 5393.443333,3436.737219 5383.666067,3429.241608 5377.183863,3422.975483 5369.581791,3414.350787 5364.033350,3409.347448 5352.062652,3401.694191 5337.560096,3393.444242 5337.262455,3387.623466 5338.582757,3380.637060 5347.672001,3355.267283 5356.761651,3331.195650 5359.541648,3324.554801 5362.250183,3322.397417 5368.738866,3303.011369 5372.117047,3303.762578 5372.693720,3298.805992 5388.141228,3260.065662 5528.853715,3334.705885 5622.943913,3384.174808 5712.028924,3431.573738 5787.614388,3472.472901 5931.588221,3549.015204 6038.965309,3606.268245 6105.835935,3641.955552"/>
    <poly id="1021325858" type="building.yes" color="255,230,230" fill="1" layer="-1.00" shape="6494.988403,4315.419895 6509.527870,4289.242927 6495.119887,4281.788667 6495.848110,4280.569116 6488.610671,4276.698225 6470.434473,4302.859504 6494.988403,4315.419895"/>
    <poly id="1022226569" type="building.yes" color="255,230,230" fill="1" layer="-1.00" shape="6525.422270,4278.413828 6498.223016,4264.825192 6493.222618,4271.962698 6521.203682,4286.239386 6525.422270,4278.413828"/>
    <poly id="1022226569#1" type="shop.hairdresser" color="237,199,255" fill="1" layer="-1.00" shape="6525.422270,4278.413828 6498.223016,4264.825192 6493.222618,4271.962698 6521.203682,4286.239386 6525.422270,4278.413828"/>
    <poly id="1022480180" type="building.yes" color="255,230,230" fill="1" layer="-1.00" shape="6552.481299,4238.914244 6529.583838,4223.456897 6521.902133,4233.416735 6546.881238,4247.480273 6552.481299,4238.914244"/>
    <poly id="1022776225" type="building.yes" color="255,230,230" fill="1" layer="-1.00" shape="6546.881238,4247.480273 6541.728627,4254.009643 6516.526335,4240.038000 6521.902133,4233.416735 6546.881238,4247.480273"/>
    <poly id="1023116952" type="amenity.bar" color="237,199,199" fill="1" layer="-1.00" shape="6516.526335,4240.038000 6541.728627,4254.009643 6533.491617,4265.996547 6507.669917,4252.677105 6516.526335,4240.038000"/>
    <poly id="1023116952#1" type="building.yes" color="255,230,230" fill="1" layer="-1.00" shape="6516.526335,4240.038000 6541.728627,4254.009643 6533.491617,4265.996547 6507.669917,4252.677105 6516.526335,4240.038000"/>
    <poly id="1023484982" type="leisure.disc_golf_course" color="207,245,201" fill="1" layer="-2.00" shape="5490.768784,2571.028971 5472.788336,2575.454050 5455.227184,2579.041121 5445.214503,2582.943472 5437.208850,2580.138258 5434.789902,2557.615865 5430.043657,2518.439135 5424.966565,2485.103131 5418.354234,2462.639843 5410.160055,2446.467627 5399.460320,2431.584489 5382.873570,2415.120081 5369.281821,2402.785259 5353.137263,2388.389467 5319.664935,2364.230247 5289.993051,2342.092329 5280.095892,2324.279974 5275.962120,2299.285396 5282.189840,2264.536205 5285.421354,2256.135947 5327.243082,2276.848738 5415.771545,2338.654447 5457.326112,2371.054813 5490.648398,2383.955067 5498.971842,2409.312330 5501.809474,2432.239355 5511.231168,2540.683951 5513.774863,2565.701012 5490.768784,2571.028971"/>
    <poly id="1023484982#1" type="sport.disc_golf" color="79,230,125" fill="1" layer="-2.00" shape="5490.768784,2571.028971 5472.788336,2575.454050 5455.227184,2579.041121 5445.214503,2582.943472 5437.208850,2580.138258 5434.789902,2557.615865 5430.043657,2518.439135 5424.966565,2485.103131 5418.354234,2462.639843 5410.160055,2446.467627 5399.460320,2431.584489 5382.873570,2415.120081 5369.281821,2402.785259 5353.137263,2388.389467 5319.664935,2364.230247 5289.993051,2342.092329 5280.095892,2324.279974 5275.962120,2299.285396 5282.189840,2264.536205 5285.421354,2256.135947 5327.243082,2276.848738 5415.771545,2338.654447 5457.326112,2371.054813 5490.648398,2383.955067 5498.971842,2409.312330 5501.809474,2432.239355 5511.231168,2540.683951 5513.774863,2565.701012 5490.768784,2571.028971"/>
    <poly id="1023899224" type="building.yes" color="255,230,230" fill="1" layer="-1.00" shape="6507.669917,4252.677105 6533.491617,4265.996547 6526.434095,4278.854589 6525.422270,4278.413828 6498.223016,4264.825192 6507.669917,4252.677105"/>
    <poly id="1023899224#1" type="shop.gift" color="237,199,255" fill="1" layer="-1.00" shape="6507.669917,4252.677105 6533.491617,4265.996547 6526.434095,4278.854589 6525.422270,4278.413828 6498.223016,4264.825192 6507.669917,4252.677105"/>
    <poly id="1038055026" type="landuse.residential" color="235,235,227" fill="1" layer="-3.00" shape="9024.140531,1336.211073 9090.337627,1247.434026 9106.160982,1237.997884 9117.502796,1239.118835 9126.230344,1238.234044 9138.503532,1231.919769 9154.344029,1205.319582 9170.553853,1205.098195 9184.895875,1218.726661 9226.798338,1272.730672 9304.914368,1377.976551 9318.467804,1391.116706 9320.702387,1404.144987 9317.936575,1427.238030 9304.603040,1449.964869 9263.885518,1520.207882 9253.765127,1514.443486 9235.662027,1507.523239 9203.916343,1500.012649 9138.591933,1502.702227 9088.931772,1502.093793 9068.882087,1503.910043 9031.414389,1510.824093 9025.265259,1493.999443 9001.590427,1399.538882 8996.508958,1385.262586 8998.147386,1373.712502 9011.492373,1352.527214 9024.140531,1336.211073"/>
    <poly id="1076396874" type="amenity.shelter" color="237,199,199" fill="1" layer="-1.00" shape="4404.380733,3948.917212 4406.143575,3942.800858 4415.754765,3945.537885 4414.001052,3951.665203 4404.380733,3948.917212"/>
    <poly id="1076396874#1" type="building.yes" color="255,230,230" fill="1" layer="-1.00" shape="4404.380733,3948.917212 4406.143575,3942.800858 4415.754765,3945.537885 4414.001052,3951.665203 4404.380733,3948.917212"/>
    <poly id="1076396876" type="amenity.toilets" color="237,199,199" fill="1" layer="-1.00" shape="4464.546294,3738.006865 4467.878748,3726.065413 4475.812042,3728.249405 4478.375422,3719.059411 4487.805219,3721.654865 4484.832319,3732.359627 4488.483391,3733.361803 4485.578537,3743.799313 4464.546294,3738.006865"/>
    <poly id="1076396876#1" type="building.yes" color="255,230,230" fill="1" layer="-1.00" shape="4464.546294,3738.006865 4467.878748,3726.065413 4475.812042,3728.249405 4478.375422,3719.059411 4487.805219,3721.654865 4484.832319,3732.359627 4488.483391,3733.361803 4485.578537,3743.799313 4464.546294,3738.006865"/>
    <poly id="1076398820" type="landuse.cemetery" color="194,194,130" fill="1" layer="-3.00" shape="3838.464885,3226.957228 3893.637942,3186.515098 3886.349037,3124.452388 3933.491901,3120.972524 4019.488535,3149.902847 4135.103246,3008.699140 4197.060624,2982.220099 4306.966196,2984.162159 4312.537305,2930.082405 4108.019130,2887.769559 3762.885487,2888.133328 3646.694080,3013.217862 3764.436829,3144.433972 3838.464885,3226.957228"/>
    <poly id="1076398824" type="building.yes" color="255,230,230" fill="1" layer="-1.00" shape="3905.560993,3070.521516 3907.146712,3056.407909 3927.475067,3058.669741 3927.921529,3054.713459 3943.914374,3056.493523 3942.718544,3067.095458 3941.459433,3078.297441 3926.545973,3076.635124 3925.331528,3072.713636 3905.560993,3070.521516"/>
    <poly id="1076398829" type="amenity.shelter" color="237,199,199" fill="1" layer="-1.00" shape="3749.515154,2985.696393 3754.865436,2976.743735 3764.701546,2982.561360 3759.351259,2991.514012 3749.515154,2985.696393"/>
    <poly id="1076398829#1" type="building.yes" color="255,230,230" fill="1" layer="-1.00" shape="3749.515154,2985.696393 3754.865436,2976.743735 3764.701546,2982.561360 3759.351259,2991.514012 3749.515154,2985.696393"/>
    <poly id="1076398834" type="building.yes" color="255,230,230" fill="1" layer="-1.00" shape="3826.582040,3198.534419 3845.257740,3185.075469 3832.653051,3167.736032 3844.884254,3158.918171 3858.542376,3177.707159 3861.129022,3175.839512 3868.631369,3186.161954 3864.835671,3188.890100 3870.139433,3196.181638 3861.623775,3202.316841 3857.052709,3196.024516 3835.852444,3211.294733 3826.582040,3198.534419"/>
    <poly id="1077515227" type="landuse.residential" color="235,235,227" fill="1" layer="-3.00" shape="7964.106265,1779.893002 7992.771670,1884.423205 7996.567680,1888.098769 8003.036078,1886.267622 8064.195586,1848.133822 8071.691685,1848.529754 8083.255695,1854.084278 8136.724992,1910.287039 8144.221031,1910.683032 8153.285163,1916.027998 8219.301798,1977.528227 8247.841100,2000.745499 8249.925733,2006.685921 8221.886923,2073.952736 8216.174171,2076.516686 8202.900605,2073.970102 8155.645532,2051.498992 8134.232040,2074.172703 8086.808756,2135.937731 8000.252105,2246.972228 7930.326584,2340.148074 7893.478994,2384.504421 7735.735931,2318.249841 7671.871789,2283.884127 7705.139219,2189.160429 7708.564424,2168.620505 7662.116958,2114.353557 7602.606674,2067.634744 7600.391419,2056.182026 7611.354205,2015.045178 7669.318199,1979.826331 7883.976748,1845.294719 7925.522254,1813.166907 7964.106265,1779.893002"/>
    <poly id="1096984493" type="leisure.playground" color="207,245,201" fill="1" layer="-2.00" shape="6336.262110,4637.269449 6295.216965,4604.991338 6331.504807,4564.895742 6367.801730,4593.434834 6360.765735,4601.377580 6364.847363,4604.959669 6336.262110,4637.269449"/>
    <poly id="1097700067" type="landuse.cemetery" color="194,194,130" fill="1" layer="-3.00" shape="2920.243024,3124.526531 2956.209516,3125.107675 2951.302586,3088.641389 2918.029835,3098.029480 2920.243024,3124.526531"/>
    <poly id="1098353339" type="leisure.pitch" color="207,245,201" fill="1" layer="-2.00" shape="4331.472563,5731.188322 4314.523427,5723.685092 4298.754724,5720.902773 4291.362671,5714.994381 4294.034573,5701.508851 4312.461850,5690.495162 4328.656748,5689.787523 4342.551792,5694.649192 4343.856173,5708.078109 4337.113829,5725.737906 4331.472563,5731.188322"/>
    <poly id="1098353339#1" type="sport.skateboard" color="79,230,125" fill="1" layer="-2.00" shape="4331.472563,5731.188322 4314.523427,5723.685092 4298.754724,5720.902773 4291.362671,5714.994381 4294.034573,5701.508851 4312.461850,5690.495162 4328.656748,5689.787523 4342.551792,5694.649192 4343.856173,5708.078109 4337.113829,5725.737906 4331.472563,5731.188322"/>
    <poly id="1099751824" type="amenity.library" color="237,199,199" fill="1" layer="-1.00" shape="6283.585031,4718.801994 6276.701262,4713.239869 6275.438997,4714.788680 6261.516650,4703.511284 6262.787735,4701.951251 6254.568629,4695.287236 6260.324039,4688.238851 6258.653006,4686.886457 6276.237027,4665.348544 6273.230989,4662.916424 6274.316605,4660.293855 6273.499197,4659.628498 6275.202863,4657.540937 6274.312706,4656.810028 6276.660821,4653.936779 6277.559800,4654.656470 6279.466522,4652.321972 6280.211338,4652.932870 6282.676380,4651.356119 6286.272760,4654.268162 6287.358603,4652.943727 6314.758348,4675.138715 6307.714145,4683.769525 6310.420508,4685.961759 6283.585031,4718.801994"/>
    <poly id="1099751824#1" type="building.yes" color="255,230,230" fill="1" layer="-1.00" shape="6283.585031,4718.801994 6276.701262,4713.239869 6275.438997,4714.788680 6261.516650,4703.511284 6262.787735,4701.951251 6254.568629,4695.287236 6260.324039,4688.238851 6258.653006,4686.886457 6276.237027,4665.348544 6273.230989,4662.916424 6274.316605,4660.293855 6273.499197,4659.628498 6275.202863,4657.540937 6274.312706,4656.810028 6276.660821,4653.936779 6277.559800,4654.656470 6279.466522,4652.321972 6280.211338,4652.932870 6282.676380,4651.356119 6286.272760,4654.268162 6287.358603,4652.943727 6314.758348,4675.138715 6307.714145,4683.769525 6310.420508,4685.961759 6283.585031,4718.801994"/>
    <poly id="1113546818" type="building.commercial" color="255,230,230" fill="1" layer="-1.00" shape="6743.544988,4385.343275 6739.542493,4393.221183 6736.501352,4399.210603 6719.355078,4432.934958 6733.047837,4440.000128 6751.129950,4406.418078 6754.490876,4400.180110 6752.329369,4399.067462 6756.163625,4391.358334 6749.185347,4388.027280 6751.066720,4384.506068 6745.921967,4381.948289 6744.087339,4385.601992 6743.544988,4385.343275"/>
    <poly id="1113546819" type="building.commercial" color="255,230,230" fill="1" layer="-1.00" shape="6695.858506,4420.814101 6719.355078,4432.934958 6739.542493,4393.221183 6732.942649,4389.984718 6723.540177,4407.901408 6711.855950,4401.928832 6712.701823,4400.130712 6717.460244,4402.671671 6725.556358,4386.370901 6716.678283,4382.023437 6716.199081,4381.786030 6695.858506,4420.814101"/>
    <poly id="1113546820" type="building.commercial" color="255,230,230" fill="1" layer="-1.00" shape="6695.858506,4420.814101 6717.739150,4378.901996 6699.229646,4369.629562 6697.611097,4368.820014 6695.974604,4371.871825 6675.454854,4410.281118 6695.858506,4420.814101"/>
    <poly id="1113546821" type="amenity.pub" color="237,199,199" fill="1" layer="-1.00" shape="6682.679961,4365.034150 6681.541554,4367.102640 6661.716803,4403.194478 6675.454854,4410.281118 6695.974604,4371.871825 6682.679961,4365.034150"/>
    <poly id="1113546821#1" type="building.commercial" color="255,230,230" fill="1" layer="-1.00" shape="6682.679961,4365.034150 6681.541554,4367.102640 6661.716803,4403.194478 6675.454854,4410.281118 6695.974604,4371.871825 6682.679961,4365.034150"/>
    <poly id="1113546822" type="building.yes" color="255,230,230" fill="1" layer="-1.00" shape="6681.541554,4367.102640 6661.358336,4403.887380 6635.258485,4390.538177 6654.482445,4353.223104 6681.541554,4367.102640"/>
    <poly id="1114794061" type="building.yes" color="255,230,230" fill="1" layer="-1.00" shape="6471.561581,4116.944565 6475.690026,4111.017517 6547.942822,4160.867853 6543.805687,4166.817178 6471.561581,4116.944565"/>
    <poly id="1114794062" type="building.yes" color="255,230,230" fill="1" layer="-1.00" shape="6478.515658,4135.220906 6481.934129,4130.535347 6539.454016,4172.192555 6536.026710,4176.889310 6478.515658,4135.220906"/>
    <poly id="1114794063" type="shop.storage_rental" color="237,199,255" fill="1" layer="-1.00" shape="6463.652667,4117.720848 6471.637983,4103.141137 6555.967966,4161.343773 6538.993935,4184.891827 6455.441631,4124.503836 6455.390136,4120.820968 6463.652667,4117.720848"/>
    <poly id="1123224199" type="building.yes" color="255,230,230" fill="1" layer="-1.00" shape="4133.545732,1972.969908 4135.112476,1964.415369 4158.471303,1968.654018 4156.904538,1977.208552 4133.545732,1972.969908"/>
    <poly id="1123224200" type="building.yes" color="255,230,230" fill="1" layer="-1.00" shape="4158.225997,1977.289596 4159.606082,1968.870862 4185.191412,1973.044598 4183.811146,1981.452235 4158.225997,1977.289596"/>
    <poly id="1123224201" type="building.yes" color="255,230,230" fill="1" layer="-1.00" shape="4138.917644,1953.476769 4141.251993,1942.059828 4149.467076,1943.729192 4147.132717,1955.146130 4138.917644,1953.476769"/>
    <poly id="1123224202" type="building.yes" color="255,230,230" fill="1" layer="-1.00" shape="4142.029745,1941.172231 4150.026408,1905.420509 4158.477843,1907.286232 4150.499267,1943.048783 4142.029745,1941.172231"/>
    <poly id="1123224203" type="building.yes" color="255,230,230" fill="1" layer="-1.00" shape="4175.617582,1957.314703 4193.961374,1909.577142 4202.215589,1912.732760 4183.862623,1960.459337 4175.617582,1957.314703"/>
    <poly id="1123224204" type="building.yes" color="255,230,230" fill="1" layer="-1.00" shape="4227.309309,1961.882556 4236.425845,1965.048125 4232.170814,1977.202458 4223.054289,1974.036894 4227.309309,1961.882556"/>
    <poly id="1123224205" type="building.yes" color="255,230,230" fill="1" layer="-1.00" shape="4255.718547,1939.165886 4258.671380,1940.277784 4259.286545,1938.693512 4263.991416,1940.479488 4264.944332,1938.013890 4269.820766,1939.864000 4268.755372,1942.630769 4273.424004,1944.395075 4273.042931,1945.387970 4279.869900,1947.975912 4276.735150,1956.175484 4269.456669,1953.416442 4268.617021,1955.636334 4261.654568,1952.994852 4262.390716,1951.076002 4255.897894,1948.616462 4256.477927,1947.088166 4253.163849,1945.837169 4255.718547,1939.165886"/>
    <poly id="1127384516" type="amenity.parking_space" color="237,199,199" fill="1" layer="-1.00" shape="4379.261124,2685.404713 4376.164173,2689.298780 4377.912761,2691.004779 4381.146605,2687.264101 4379.261124,2685.404713"/>
    <poly id="1127384517" type="amenity.parking_space" color="237,199,199" fill="1" layer="-1.00" shape="4376.164173,2689.298780 4372.912689,2693.061902 4374.788088,2694.843764 4377.912761,2691.004779 4376.164173,2689.298780"/>
    <poly id="1133166579" type="building.yes" color="255,230,230" fill="1" layer="-1.00" shape="2694.925991,1479.684594 2708.339335,1468.029977 2701.663459,1460.403796 2688.241130,1472.058552 2694.925991,1479.684594"/>
    <poly id="1133166580" type="building.yes" color="255,230,230" fill="1" layer="-1.00" shape="2823.841553,1565.359531 2839.112560,1556.086065 2833.354584,1546.693529 2818.083406,1555.955911 2823.841553,1565.359531"/>
    <poly id="1133249993" type="building.apartments" color="255,230,230" fill="1" layer="-1.00" shape="3292.127030,1589.223932 3299.831192,1582.156769 3286.064000,1567.286746 3278.368974,1574.364885 3292.127030,1589.223932"/>
    <poly id="1133249994" type="building.apartments" color="255,230,230" fill="1" layer="-1.00" shape="3269.857714,1563.979692 3277.651993,1555.679643 3262.621922,1541.693189 3254.836623,1549.993123 3269.857714,1563.979692"/>
    <poly id="1144579109" type="building.roof" color="255,230,230" fill="1" layer="-1.00" shape="3628.136659,3973.458003 3640.860510,3977.203702 3649.632473,3947.620229 3636.917719,3943.885481 3628.136659,3973.458003"/>
    <poly id="1144579110" type="building.yes" color="255,230,230" fill="1" layer="-1.00" shape="3620.691024,3984.648726 3647.218563,3992.302197 3651.481150,3977.673109 3624.953571,3970.019624 3620.691024,3984.648726"/>
    <poly id="1144579111" type="building.yes" color="255,230,230" fill="1" layer="-1.00" shape="3504.101842,3946.563236 3552.195325,3959.621674 3560.324111,3929.037636 3513.111177,3916.654446 3504.101842,3946.563236"/>
    <poly id="1144579112" type="building.yes" color="255,230,230" fill="1" layer="-1.00" shape="3482.016227,3933.077012 3494.995243,3937.074039 3502.351658,3913.391180 3489.372611,3909.394142 3482.016227,3933.077012"/>
    <poly id="1144579113" type="building.yes" color="255,230,230" fill="1" layer="-1.00" shape="3384.691069,3897.768372 3405.920560,3904.132351 3410.705254,3888.363928 3389.466592,3881.988972 3384.691069,3897.768372"/>
    <poly id="1144579114" type="building.roof" color="255,230,230" fill="1" layer="-1.00" shape="3370.718369,3890.235255 3384.796306,3894.460464 3387.659918,3884.999505 3373.581968,3880.774292 3370.718369,3890.235255"/>
    <poly id="1144579115" type="building.yes" color="255,230,230" fill="1" layer="-1.00" shape="3572.797127,3972.341542 3585.729402,3976.217322 3594.354660,3947.689938 3581.413370,3943.814273 3572.797127,3972.341542"/>
    <poly id="1144579116" type="building.yes" color="255,230,230" fill="1" layer="-1.00" shape="3504.140846,4006.344128 3535.075428,4010.095171 3539.779480,3971.749057 3508.835786,3967.998122 3504.140846,4006.344128"/>
    <poly id="1144579117" type="building.yes" color="255,230,230" fill="1" layer="-1.00" shape="3451.299434,4003.461805 3466.537420,4005.939651 3471.568514,3975.399891 3456.321499,3972.922164 3451.299434,4003.461805"/>
    <poly id="1144579118" type="building.yes" color="255,230,230" fill="1" layer="-1.00" shape="3329.483143,3997.285957 3334.360737,3980.495382 3395.639563,3998.157045 3393.568549,4005.276628 3397.463801,4006.396895 3394.494645,4016.636037 3365.280098,4008.222995 3364.287504,4011.643485 3342.250396,4005.302292 3343.405287,4001.302517 3329.483143,3997.285957"/>
    <poly id="1144579119" type="building.roof" color="255,230,230" fill="1" layer="-1.00" shape="3318.718231,3989.263111 3329.862031,3992.398589 3332.109759,3984.455402 3320.966109,3981.331013 3318.718231,3989.263111"/>
    <poly id="1144579120" type="amenity.restaurant" color="237,199,199" fill="1" layer="-1.00" shape="3473.558445,3844.136229 3484.583193,3843.967218 3484.601306,3845.231823 3492.277440,3845.121880 3492.013544,3827.950145 3487.812021,3828.021417 3487.763403,3824.626953 3479.827048,3824.751722 3479.845162,3826.016326 3473.040030,3826.124897 3473.160874,3833.934253 3471.419152,3833.959203 3471.482952,3837.786165 3473.467077,3837.757744 3473.558445,3844.136229"/>
    <poly id="1144579120#1" type="building.yes" color="255,230,230" fill="1" layer="-1.00" shape="3473.558445,3844.136229 3484.583193,3843.967218 3484.601306,3845.231823 3492.277440,3845.121880 3492.013544,3827.950145 3487.812021,3828.021417 3487.763403,3824.626953 3479.827048,3824.751722 3479.845162,3826.016326 3473.040030,3826.124897 3473.160874,3833.934253 3471.419152,3833.959203 3471.482952,3837.786165 3473.467077,3837.757744 3473.558445,3844.136229"/>
    <poly id="1144580012" type="building.yes" color="255,230,230" fill="1" layer="-1.00" shape="3157.480708,4136.260123 3181.228142,4139.780261 3187.282837,4099.306377 3163.526319,4095.786349 3157.480708,4136.260123"/>
    <poly id="1144580013" type="building.yes" color="255,230,230" fill="1" layer="-1.00" shape="3168.135441,4084.713605 3177.027688,4065.501971 3120.153282,4039.401611 3111.252309,4058.624527 3168.135441,4084.713605"/>
    <poly id="1144580014" type="building.yes" color="255,230,230" fill="1" layer="-1.00" shape="3099.467422,4057.118457 3109.964123,4034.588387 3071.735603,4016.930288 3061.238976,4039.460405 3099.467422,4057.118457"/>
    <poly id="1144580015" type="building.yes" color="255,230,230" fill="1" layer="-1.00" shape="3116.632268,3914.319228 3130.673703,3879.111810 3116.359574,3873.459104 3102.327163,3908.666418 3116.632268,3914.319228"/>
    <poly id="1144580891" type="building.yes" color="255,230,230" fill="1" layer="-1.00" shape="2918.354567,4459.343180 2997.084143,4375.694560 2981.620925,4361.271127 2902.900491,4444.930849 2918.354567,4459.343180"/>
    <poly id="1144580892" type="building.yes" color="255,230,230" fill="1" layer="-1.00" shape="2961.257784,4317.082866 3000.999312,4313.271416 2998.647167,4288.950999 2958.905528,4292.762457 2961.257784,4317.082866"/>
    <poly id="1144580893" type="building.yes" color="255,230,230" fill="1" layer="-1.00" shape="3029.939106,4308.860964 3044.535231,4322.930802 3062.533076,4304.420275 3067.850699,4309.547549 3073.947528,4303.290920 3068.384005,4297.923080 3071.135823,4295.087506 3070.079607,4294.070822 3074.963911,4289.041012 3061.660926,4276.228498 3029.939106,4308.860964"/>
    <poly id="1144580894" type="building.yes" color="255,230,230" fill="1" layer="-1.00" shape="3102.400639,4363.739866 3117.818437,4378.141967 3161.262322,4332.038166 3156.547956,4327.645559 3160.811036,4323.124011 3150.089646,4313.114692 3102.400639,4363.739866"/>